


 34 38  0  0  0  0  0  0  0  0999 V2000
   10.3867    0.4914   23.6772 N   0  0  0  0  0  0  0  0  0  0  0  0
    8.9757    0.0928   23.9940 C   0  0  0  0  0  0  0  0  0  0  0  0
    8.7110   -1.0896   24.8782 C   0  0  0  0  0  0  0  0  0  0  0  0
    8.2933   -2.2423   25.7424 C   0  0  0  0  0  0  0  0  0  0  0  0
    8.7842   -3.1370   26.4018 O   0  0  0  0  0  0  0  0  0  0  0  0
    6.7942   -2.2706   25.7847 N   0  0  0  0  0  0  0  0  0  0  0  0
    6.2853   -1.1354   24.9467 C   0  0  0  0  0  0  0  0  0  0  0  0
    7.4699   -0.4055   24.3864 C   0  0  0  0  0  0  0  0  0  0  0  0
    7.4219    0.7973   23.4914 C   0  0  0  0  0  0  0  0  0  0  0  0
    9.8572   -1.8734   25.4456 C   0  0  0  0  0  0  0  0  0  0  0  0
    9.5924   -3.0558   26.3298 C   0  0  0  0  0  0  0  0  0  0  0  0
   10.7386   -3.8395   26.8972 C   0  0  0  0  0  0  0  0  0  0  0  0
   10.4739   -5.0220   27.7814 F   0  0  0  0  0  0  0  0  0  0  0  0
   12.1495   -3.4409   26.5804 C   0  0  0  0  0  0  0  0  0  0  0  0
   12.4143   -2.2586   25.6962 C   0  0  0  0  0  0  0  0  0  0  0  0
   11.2681   -1.4748   25.1288 C   0  0  0  0  0  0  0  0  0  0  0  0
   11.5328   -0.2924   24.2446 C   0  0  0  0  0  0  0  0  0  0  0  0
   12.9438    0.1063   23.9277 O   0  0  0  0  0  0  0  0  0  0  0  0
    5.9519   -3.2603   26.5337 C   0  0  0  0  0  0  0  0  0  0  0  0
    5.5101   -4.5278   25.8640 C   0  0  0  0  0  0  0  0  0  0  0  0
    4.6678   -5.5176   26.6130 N   0  0  0  0  0  0  0  0  0  0  0  0
    4.2672   -5.2398   28.0315 C   0  0  0  0  0  0  0  0  0  0  0  0
    4.7090   -3.9723   28.7012 C   0  0  0  0  0  0  0  0  0  0  0  0
    4.3083   -3.6946   30.1198 C   0  0  0  0  0  0  0  0  0  0  0  0
    4.7501   -2.4271   30.7894 C   0  0  0  0  0  0  0  0  0  0  0  0
    5.5924   -1.4374   30.0405 C   0  0  0  0  0  0  0  0  0  0  0  0
    5.9930   -1.7151   28.6219 C   0  0  0  0  0  0  0  0  0  0  0  0
    5.5513   -2.9826   27.9522 C   0  0  0  0  0  0  0  0  0  0  0  0
   10.6514    1.6739   22.7929 C   0  0  0  0  0  0  0  0  0  0  0  0
   11.9105    2.4710   22.9636 C   0  0  0  0  0  0  0  0  0  0  0  0
   11.4458    5.0260   22.8873 C   0  0  0  0  0  0  0  0  0  0  0  0
   11.8669    3.8044   23.6491 N   0  0  0  0  0  0  0  0  0  0  0  0
   12.1235    3.8805   24.6334 H   0  0  0  0  0  0  0  0  0  0  0  0
   12.1532    2.9738   24.1672 H   0  0  0  0  0  0  0  0  0  0  0  0
 31 32  1  0  0  0
 32 30  1  0  0  0
 30 29  1  0  0  0
 29  1  1  0  0  0
  1  2  1  0  0  0
  3  2  1  0  0  0
  3  4  1  0  0  0
  4  5  2  0  0  0
  4  6  1  0  0  0
  6 19  1  0  0  0
 19 20  2  0  0  0
 20 21  1  0  0  0
 21 22  2  0  0  0
 22 23  1  0  0  0
 23 24  2  0  0  0
 24 25  1  0  0  0
 25 26  2  0  0  0
 26 27  1  0  0  0
 27 28  2  0  0  0
  6  7  1  0  0  0
  7  8  1  0  0  0
  8  9  1  0  0  0
  3 10  1  0  0  0
 10 11  2  0  0  0
 11 12  1  0  0  0
 12 13  1  0  0  0
 12 14  2  0  0  0
 14 15  1  0  0  0
 15 16  2  0  0  0
 16 17  1  0  0  0
 17 18  2  0  0  0
 17  1  1  0  0  0
  8  3  1  0  0  0
 16 10  1  0  0  0
 28 19  1  0  0  0
 28 23  1  0  0  0
 32 33  1  0  0  0
 32 34  1  0  0  0
M  CHG 1  32   1
M  END
> <minimizedAffinity>
-7.86314

> <CNNscore>
0.6002899408

> <CNNaffinity>
6.4842567444

> <CNN_VS>
3.8924341202

> <CNNaffinity_variance>
0.1846027523

$$$$



 34 38  0  0  0  0  0  0  0  0999 V2000
   10.5811    0.6380   23.7341 N   0  0  0  0  0  0  0  0  0  0  0  0
    9.1874    0.3115   24.1823 C   0  0  0  0  0  0  0  0  0  0  0  0
    8.9405   -0.8844   25.0535 C   0  0  0  0  0  0  0  0  0  0  0  0
    8.5416   -2.0410   25.9213 C   0  0  0  0  0  0  0  0  0  0  0  0
    9.0402   -2.9861   26.4998 O   0  0  0  0  0  0  0  0  0  0  0  0
    7.0555   -1.9830   26.1168 N   0  0  0  0  0  0  0  0  0  0  0  0
    6.5359   -0.7906   25.3696 C   0  0  0  0  0  0  0  0  0  0  0  0
    7.7009   -0.1117   24.7125 C   0  0  0  0  0  0  0  0  0  0  0  0
    7.6374    1.1233   23.8634 C   0  0  0  0  0  0  0  0  0  0  0  0
   10.0873   -1.7538   25.4764 C   0  0  0  0  0  0  0  0  0  0  0  0
    9.8404   -2.9497   26.3475 C   0  0  0  0  0  0  0  0  0  0  0  0
   10.9873   -3.8191   26.7704 C   0  0  0  0  0  0  0  0  0  0  0  0
   10.7404   -5.0150   27.6416 F   0  0  0  0  0  0  0  0  0  0  0  0
   12.3810   -3.4926   26.3222 C   0  0  0  0  0  0  0  0  0  0  0  0
   12.6279   -2.2967   25.4511 C   0  0  0  0  0  0  0  0  0  0  0  0
   11.4811   -1.4273   25.0282 C   0  0  0  0  0  0  0  0  0  0  0  0
   11.7280   -0.2314   24.1570 C   0  0  0  0  0  0  0  0  0  0  0  0
   13.1217    0.0951   23.7088 O   0  0  0  0  0  0  0  0  0  0  0  0
    6.2334   -2.9480   26.9185 C   0  0  0  0  0  0  0  0  0  0  0  0
    6.1390   -2.7961   28.4078 C   0  0  0  0  0  0  0  0  0  0  0  0
    5.3169   -3.7611   29.2096 N   0  0  0  0  0  0  0  0  0  0  0  0
    4.5891   -4.8781   28.5220 C   0  0  0  0  0  0  0  0  0  0  0  0
    4.6835   -5.0300   27.0327 C   0  0  0  0  0  0  0  0  0  0  0  0
    3.9557   -6.1471   26.3452 C   0  0  0  0  0  0  0  0  0  0  0  0
    4.0501   -6.2989   24.8559 C   0  0  0  0  0  0  0  0  0  0  0  0
    4.8722   -5.3339   24.0541 C   0  0  0  0  0  0  0  0  0  0  0  0
    5.6000   -4.2169   24.7416 C   0  0  0  0  0  0  0  0  0  0  0  0
    5.5056   -4.0650   26.2310 C   0  0  0  0  0  0  0  0  0  0  0  0
   10.8280    1.8339   22.8630 C   0  0  0  0  0  0  0  0  0  0  0  0
   12.0549    2.6717   23.0694 C   0  0  0  0  0  0  0  0  0  0  0  0
   11.3757    5.1703   22.8553 C   0  0  0  0  0  0  0  0  0  0  0  0
   11.9356    4.0414   23.6691 N   0  0  0  0  0  0  0  0  0  0  0  0
   12.2352    4.2053   24.6302 H   0  0  0  0  0  0  0  0  0  0  0  0
   12.3164    3.2739   24.2225 H   0  0  0  0  0  0  0  0  0  0  0  0
 31 32  1  0  0  0
 32 30  1  0  0  0
 30 29  1  0  0  0
 29  1  1  0  0  0
  1  2  1  0  0  0
  3  2  1  0  0  0
  3  4  1  0  0  0
  4  5  2  0  0  0
  4  6  1  0  0  0
  6 19  1  0  0  0
 19 20  2  0  0  0
 20 21  1  0  0  0
 21 22  2  0  0  0
 22 23  1  0  0  0
 23 24  2  0  0  0
 24 25  1  0  0  0
 25 26  2  0  0  0
 26 27  1  0  0  0
 27 28  2  0  0  0
  6  7  1  0  0  0
  7  8  1  0  0  0
  8  9  1  0  0  0
  3 10  1  0  0  0
 10 11  2  0  0  0
 11 12  1  0  0  0
 12 13  1  0  0  0
 12 14  2  0  0  0
 14 15  1  0  0  0
 15 16  2  0  0  0
 16 17  1  0  0  0
 17 18  2  0  0  0
 17  1  1  0  0  0
  8  3  1  0  0  0
 16 10  1  0  0  0
 28 19  1  0  0  0
 28 23  1  0  0  0
 32 33  1  0  0  0
 32 34  1  0  0  0
M  CHG 1  32   1
M  END
> <minimizedAffinity>
-8.23538

> <CNNscore>
0.4778817892

> <CNNaffinity>
6.3877301216

> <CNN_VS>
3.0525798798

> <CNNaffinity_variance>
0.2199926078

$$$$



 34 38  0  0  0  0  0  0  0  0999 V2000
    8.0049    4.5548   23.2834 N   0  0  0  0  0  0  0  0  0  0  0  0
    7.3533    3.2567   23.6581 C   0  0  0  0  0  0  0  0  0  0  0  0
    8.1582    1.9911   23.6762 C   0  0  0  0  0  0  0  0  0  0  0  0
    8.8315    0.6522   23.7383 C   0  0  0  0  0  0  0  0  0  0  0  0
    9.9235    0.1502   23.5592 O   0  0  0  0  0  0  0  0  0  0  0  0
    7.8083   -0.3624   24.1550 N   0  0  0  0  0  0  0  0  0  0  0  0
    6.5026    0.3495   24.3505 C   0  0  0  0  0  0  0  0  0  0  0  0
    6.7189    1.8041   24.0546 C   0  0  0  0  0  0  0  0  0  0  0  0
    5.6784    2.8823   24.1247 C   0  0  0  0  0  0  0  0  0  0  0  0
    9.6149    2.0236   23.3195 C   0  0  0  0  0  0  0  0  0  0  0  0
   10.4199    0.7580   23.3376 C   0  0  0  0  0  0  0  0  0  0  0  0
   11.8764    0.7906   22.9809 C   0  0  0  0  0  0  0  0  0  0  0  0
   12.6815   -0.4750   22.9990 F   0  0  0  0  0  0  0  0  0  0  0  0
   12.5281    2.0886   22.6063 C   0  0  0  0  0  0  0  0  0  0  0  0
   11.7231    3.3542   22.5882 C   0  0  0  0  0  0  0  0  0  0  0  0
   10.2665    3.3217   22.9448 C   0  0  0  0  0  0  0  0  0  0  0  0
    9.4615    4.5873   22.9268 C   0  0  0  0  0  0  0  0  0  0  0  0
   10.1131    5.8853   22.5521 O   0  0  0  0  0  0  0  0  0  0  0  0
    8.0487   -1.8310   24.3433 C   0  0  0  0  0  0  0  0  0  0  0  0
    7.0728   -2.8275   23.7913 C   0  0  0  0  0  0  0  0  0  0  0  0
    7.3131   -4.2961   23.9795 N   0  0  0  0  0  0  0  0  0  0  0  0
    8.5293   -4.7682   24.7197 C   0  0  0  0  0  0  0  0  0  0  0  0
    9.5052   -3.7717   25.2716 C   0  0  0  0  0  0  0  0  0  0  0  0
   10.7215   -4.2438   26.0118 C   0  0  0  0  0  0  0  0  0  0  0  0
   11.6974   -3.2473   26.5637 C   0  0  0  0  0  0  0  0  0  0  0  0
   11.4570   -1.7786   26.3755 C   0  0  0  0  0  0  0  0  0  0  0  0
   10.2408   -1.3066   25.6354 C   0  0  0  0  0  0  0  0  0  0  0  0
    9.2649   -2.3031   25.0834 C   0  0  0  0  0  0  0  0  0  0  0  0
    7.1999    5.8204   23.2654 C   0  0  0  0  0  0  0  0  0  0  0  0
    6.0189    5.9450   22.3490 C   0  0  0  0  0  0  0  0  0  0  0  0
    5.9576    7.8254   20.5572 C   0  0  0  0  0  0  0  0  0  0  0  0
    6.2138    6.3956   20.9316 N   0  0  0  0  0  0  0  0  0  0  0  0
    6.5205    5.7298   20.2224 H   0  0  0  0  0  0  0  0  0  0  0  0
    6.3880    5.4234   21.1862 H   0  0  0  0  0  0  0  0  0  0  0  0
 31 32  1  0  0  0
 32 30  1  0  0  0
 30 29  1  0  0  0
 29  1  1  0  0  0
  1  2  1  0  0  0
  3  2  1  0  0  0
  3  4  1  0  0  0
  4  5  2  0  0  0
  4  6  1  0  0  0
  6 19  1  0  0  0
 19 20  2  0  0  0
 20 21  1  0  0  0
 21 22  2  0  0  0
 22 23  1  0  0  0
 23 24  2  0  0  0
 24 25  1  0  0  0
 25 26  2  0  0  0
 26 27  1  0  0  0
 27 28  2  0  0  0
  6  7  1  0  0  0
  7  8  1  0  0  0
  8  9  1  0  0  0
  3 10  1  0  0  0
 10 11  2  0  0  0
 11 12  1  0  0  0
 12 13  1  0  0  0
 12 14  2  0  0  0
 14 15  1  0  0  0
 15 16  2  0  0  0
 16 17  1  0  0  0
 17 18  2  0  0  0
 17  1  1  0  0  0
  8  3  1  0  0  0
 16 10  1  0  0  0
 28 19  1  0  0  0
 28 23  1  0  0  0
 32 33  1  0  0  0
 32 34  1  0  0  0
M  CHG 1  32   1
M  END
> <minimizedAffinity>
-7.22741

> <CNNscore>
0.4442520738

> <CNNaffinity>
6.3708057404

> <CNN_VS>
2.8302435875

> <CNNaffinity_variance>
0.2938097119

$$$$



 34 38  0  0  0  0  0  0  0  0999 V2000
    9.9593    4.4147   22.9106 N   0  0  0  0  0  0  0  0  0  0  0  0
    8.6978    3.6373   23.1437 C   0  0  0  0  0  0  0  0  0  0  0  0
    8.7518    2.1450   23.2852 C   0  0  0  0  0  0  0  0  0  0  0  0
    8.6500    0.6571   23.4456 C   0  0  0  0  0  0  0  0  0  0  0  0
    9.3602   -0.3288   23.4557 O   0  0  0  0  0  0  0  0  0  0  0  0
    7.2060    0.3115   23.6584 N   0  0  0  0  0  0  0  0  0  0  0  0
    6.4153    1.5858   23.6296 C   0  0  0  0  0  0  0  0  0  0  0  0
    7.3707    2.7190   23.3989 C   0  0  0  0  0  0  0  0  0  0  0  0
    7.0085    4.1712   23.2995 C   0  0  0  0  0  0  0  0  0  0  0  0
   10.0674    1.4300   23.1937 C   0  0  0  0  0  0  0  0  0  0  0  0
   10.1214   -0.0623   23.3352 C   0  0  0  0  0  0  0  0  0  0  0  0
   11.4368   -0.7772   23.2436 C   0  0  0  0  0  0  0  0  0  0  0  0
   11.4909   -2.2696   23.3851 F   0  0  0  0  0  0  0  0  0  0  0  0
   12.6983    0.0002   23.0105 C   0  0  0  0  0  0  0  0  0  0  0  0
   12.6443    1.4925   22.8689 C   0  0  0  0  0  0  0  0  0  0  0  0
   11.3288    2.2074   22.9605 C   0  0  0  0  0  0  0  0  0  0  0  0
   11.2748    3.6998   22.8190 C   0  0  0  0  0  0  0  0  0  0  0  0
   12.5362    4.4772   22.5859 O   0  0  0  0  0  0  0  0  0  0  0  0
    6.6502   -1.0665   23.8640 C   0  0  0  0  0  0  0  0  0  0  0  0
    6.5501   -2.0152   22.7064 C   0  0  0  0  0  0  0  0  0  0  0  0
    5.9943   -3.3932   22.9119 N   0  0  0  0  0  0  0  0  0  0  0  0
    5.5387   -3.8225   24.2750 C   0  0  0  0  0  0  0  0  0  0  0  0
    5.6388   -2.8738   25.4326 C   0  0  0  0  0  0  0  0  0  0  0  0
    5.1832   -3.3031   26.7958 C   0  0  0  0  0  0  0  0  0  0  0  0
    5.2833   -2.3543   27.9533 C   0  0  0  0  0  0  0  0  0  0  0  0
    5.8391   -0.9763   27.7477 C   0  0  0  0  0  0  0  0  0  0  0  0
    6.2947   -0.5471   26.3846 C   0  0  0  0  0  0  0  0  0  0  0  0
    6.1946   -1.4958   25.2271 C   0  0  0  0  0  0  0  0  0  0  0  0
    9.9052    5.9071   22.7690 C   0  0  0  0  0  0  0  0  0  0  0  0
   10.5934    6.7813   23.7751 C   0  0  0  0  0  0  0  0  0  0  0  0
   12.0359    7.8254   21.8833 C   0  0  0  0  0  0  0  0  0  0  0  0
   11.6809    7.7167   23.3367 N   0  0  0  0  0  0  0  0  0  0  0  0
   12.1790    8.2789   24.0268 H   0  0  0  0  0  0  0  0  0  0  0  0
   11.4395    7.6428   24.3249 H   0  0  0  0  0  0  0  0  0  0  0  0
 31 32  1  0  0  0
 32 30  1  0  0  0
 30 29  1  0  0  0
 29  1  1  0  0  0
  1  2  1  0  0  0
  3  2  1  0  0  0
  3  4  1  0  0  0
  4  5  2  0  0  0
  4  6  1  0  0  0
  6 19  1  0  0  0
 19 20  2  0  0  0
 20 21  1  0  0  0
 21 22  2  0  0  0
 22 23  1  0  0  0
 23 24  2  0  0  0
 24 25  1  0  0  0
 25 26  2  0  0  0
 26 27  1  0  0  0
 27 28  2  0  0  0
  6  7  1  0  0  0
  7  8  1  0  0  0
  8  9  1  0  0  0
  3 10  1  0  0  0
 10 11  2  0  0  0
 11 12  1  0  0  0
 12 13  1  0  0  0
 12 14  2  0  0  0
 14 15  1  0  0  0
 15 16  2  0  0  0
 16 17  1  0  0  0
 17 18  2  0  0  0
 17  1  1  0  0  0
  8  3  1  0  0  0
 16 10  1  0  0  0
 28 19  1  0  0  0
 28 23  1  0  0  0
 32 33  1  0  0  0
 32 34  1  0  0  0
M  CHG 1  32   1
M  END
> <minimizedAffinity>
-6.87447

> <CNNscore>
0.4426170290

> <CNNaffinity>
6.5112090111

> <CNN_VS>
2.8819720745

> <CNNaffinity_variance>
0.5587692261

$$$$



 34 38  0  0  0  0  0  0  0  0999 V2000
   10.7591    1.5755   23.0902 N   0  0  0  0  0  0  0  0  0  0  0  0
    9.3599    1.3547   23.5834 C   0  0  0  0  0  0  0  0  0  0  0  0
    9.0459    0.1646   24.4408 C   0  0  0  0  0  0  0  0  0  0  0  0
    8.5837   -0.9738   25.3012 C   0  0  0  0  0  0  0  0  0  0  0  0
    9.0227   -1.9688   25.8433 O   0  0  0  0  0  0  0  0  0  0  0  0
    7.1153   -0.7987   25.5524 N   0  0  0  0  0  0  0  0  0  0  0  0
    6.6699    0.4480   24.8471 C   0  0  0  0  0  0  0  0  0  0  0  0
    7.8631    1.0433   24.1601 C   0  0  0  0  0  0  0  0  0  0  0  0
    7.8719    2.2973   23.3370 C   0  0  0  0  0  0  0  0  0  0  0  0
   10.1313   -0.8047   24.8050 C   0  0  0  0  0  0  0  0  0  0  0  0
    9.8174   -1.9948   25.6623 C   0  0  0  0  0  0  0  0  0  0  0  0
   10.9027   -2.9640   26.0265 C   0  0  0  0  0  0  0  0  0  0  0  0
   10.5888   -4.1541   26.8839 F   0  0  0  0  0  0  0  0  0  0  0  0
   12.3020   -2.7431   25.5333 C   0  0  0  0  0  0  0  0  0  0  0  0
   12.6159   -1.5530   24.6759 C   0  0  0  0  0  0  0  0  0  0  0  0
   11.5306   -0.5838   24.3118 C   0  0  0  0  0  0  0  0  0  0  0  0
   11.8445    0.6064   23.4544 C   0  0  0  0  0  0  0  0  0  0  0  0
   13.2437    0.8272   22.9612 O   0  0  0  0  0  0  0  0  0  0  0  0
    6.2451   -1.7102   26.3659 C   0  0  0  0  0  0  0  0  0  0  0  0
    5.9376   -3.0925   25.8711 C   0  0  0  0  0  0  0  0  0  0  0  0
    5.0673   -4.0040   26.6847 N   0  0  0  0  0  0  0  0  0  0  0  0
    4.5047   -3.5332   27.9930 C   0  0  0  0  0  0  0  0  0  0  0  0
    4.8123   -2.1510   28.4878 C   0  0  0  0  0  0  0  0  0  0  0  0
    4.2496   -1.6802   29.7963 C   0  0  0  0  0  0  0  0  0  0  0  0
    4.5572   -0.2980   30.2910 C   0  0  0  0  0  0  0  0  0  0  0  0
    5.4274    0.6136   29.4774 C   0  0  0  0  0  0  0  0  0  0  0  0
    5.9900    0.1428   28.1691 C   0  0  0  0  0  0  0  0  0  0  0  0
    5.6825   -1.2395   27.6743 C   0  0  0  0  0  0  0  0  0  0  0  0
   11.0730    2.7657   22.2328 C   0  0  0  0  0  0  0  0  0  0  0  0
   12.0574    3.7932   22.7074 C   0  0  0  0  0  0  0  0  0  0  0  0
   11.1894    6.2333   22.5020 C   0  0  0  0  0  0  0  0  0  0  0  0
   11.5704    5.0573   23.3515 N   0  0  0  0  0  0  0  0  0  0  0  0
   11.4982    5.1171   24.3672 H   0  0  0  0  0  0  0  0  0  0  0  0
   11.8294    4.2575   23.9292 H   0  0  0  0  0  0  0  0  0  0  0  0
 31 32  1  0  0  0
 32 30  1  0  0  0
 30 29  1  0  0  0
 29  1  1  0  0  0
  1  2  1  0  0  0
  3  2  1  0  0  0
  3  4  1  0  0  0
  4  5  2  0  0  0
  4  6  1  0  0  0
  6 19  1  0  0  0
 19 20  2  0  0  0
 20 21  1  0  0  0
 21 22  2  0  0  0
 22 23  1  0  0  0
 23 24  2  0  0  0
 24 25  1  0  0  0
 25 26  2  0  0  0
 26 27  1  0  0  0
 27 28  2  0  0  0
  6  7  1  0  0  0
  7  8  1  0  0  0
  8  9  1  0  0  0
  3 10  1  0  0  0
 10 11  2  0  0  0
 11 12  1  0  0  0
 12 13  1  0  0  0
 12 14  2  0  0  0
 14 15  1  0  0  0
 15 16  2  0  0  0
 16 17  1  0  0  0
 17 18  2  0  0  0
 17  1  1  0  0  0
  8  3  1  0  0  0
 16 10  1  0  0  0
 28 19  1  0  0  0
 28 23  1  0  0  0
 32 33  1  0  0  0
 32 34  1  0  0  0
M  CHG 1  32   1
M  END
> <minimizedAffinity>
-7.22386

> <CNNscore>
0.4294034243

> <CNNaffinity>
6.3751244545

> <CNN_VS>
2.7375001907

> <CNNaffinity_variance>
0.2033720464

$$$$



 34 38  0  0  0  0  0  0  0  0999 V2000
    7.4266    4.4862   23.8367 N   0  0  0  0  0  0  0  0  0  0  0  0
    8.1208    3.2149   23.4470 C   0  0  0  0  0  0  0  0  0  0  0  0
    7.9545    1.9822   24.2852 C   0  0  0  0  0  0  0  0  0  0  0  0
    7.8830    0.6771   25.0212 C   0  0  0  0  0  0  0  0  0  0  0  0
    7.3647    0.1918   26.0073 O   0  0  0  0  0  0  0  0  0  0  0  0
    8.7264   -0.3189   24.2819 N   0  0  0  0  0  0  0  0  0  0  0  0
    9.3192    0.3705   23.0890 C   0  0  0  0  0  0  0  0  0  0  0  0
    8.8422    1.7927   23.0910 C   0  0  0  0  0  0  0  0  0  0  0  0
    9.1915    2.8412   22.0768 C   0  0  0  0  0  0  0  0  0  0  0  0
    7.0940    2.0207   25.5133 C   0  0  0  0  0  0  0  0  0  0  0  0
    6.9277    0.7880   26.3515 C   0  0  0  0  0  0  0  0  0  0  0  0
    6.0672    0.8266   27.5795 C   0  0  0  0  0  0  0  0  0  0  0  0
    5.9009   -0.4062   28.4179 F   0  0  0  0  0  0  0  0  0  0  0  0
    5.3730    2.0979   27.9693 C   0  0  0  0  0  0  0  0  0  0  0  0
    5.5393    3.3306   27.1310 C   0  0  0  0  0  0  0  0  0  0  0  0
    6.3998    3.2920   25.9030 C   0  0  0  0  0  0  0  0  0  0  0  0
    6.5661    4.5248   25.0647 C   0  0  0  0  0  0  0  0  0  0  0  0
    5.8719    5.7961   25.4544 O   0  0  0  0  0  0  0  0  0  0  0  0
    8.9395   -1.7527   24.6679 C   0  0  0  0  0  0  0  0  0  0  0  0
    7.8474   -2.7579   24.4516 C   0  0  0  0  0  0  0  0  0  0  0  0
    8.0605   -4.1917   24.8375 N   0  0  0  0  0  0  0  0  0  0  0  0
    9.3658   -4.6201   25.4397 C   0  0  0  0  0  0  0  0  0  0  0  0
   10.4579   -3.6149   25.6560 C   0  0  0  0  0  0  0  0  0  0  0  0
   11.7632   -4.0434   26.2583 C   0  0  0  0  0  0  0  0  0  0  0  0
   12.8552   -3.0381   26.4745 C   0  0  0  0  0  0  0  0  0  0  0  0
   12.6421   -1.6043   26.0886 C   0  0  0  0  0  0  0  0  0  0  0  0
   11.3369   -1.1759   25.4864 C   0  0  0  0  0  0  0  0  0  0  0  0
   10.2447   -2.1811   25.2701 C   0  0  0  0  0  0  0  0  0  0  0  0
    7.5930    5.7189   22.9984 C   0  0  0  0  0  0  0  0  0  0  0  0
    8.7415    6.6496   23.2529 C   0  0  0  0  0  0  0  0  0  0  0  0
   11.1698    6.1296   22.4897 C   0  0  0  0  0  0  0  0  0  0  0  0
    9.8407    6.7787   22.2405 N   0  0  0  0  0  0  0  0  0  0  0  0
    9.6845    7.3079   21.3827 H   0  0  0  0  0  0  0  0  0  0  0  0
    8.9369    7.2201   22.0711 H   0  0  0  0  0  0  0  0  0  0  0  0
 31 32  1  0  0  0
 32 30  1  0  0  0
 30 29  1  0  0  0
 29  1  1  0  0  0
  1  2  1  0  0  0
  3  2  1  0  0  0
  3  4  1  0  0  0
  4  5  2  0  0  0
  4  6  1  0  0  0
  6 19  1  0  0  0
 19 20  2  0  0  0
 20 21  1  0  0  0
 21 22  2  0  0  0
 22 23  1  0  0  0
 23 24  2  0  0  0
 24 25  1  0  0  0
 25 26  2  0  0  0
 26 27  1  0  0  0
 27 28  2  0  0  0
  6  7  1  0  0  0
  7  8  1  0  0  0
  8  9  1  0  0  0
  3 10  1  0  0  0
 10 11  2  0  0  0
 11 12  1  0  0  0
 12 13  1  0  0  0
 12 14  2  0  0  0
 14 15  1  0  0  0
 15 16  2  0  0  0
 16 17  1  0  0  0
 17 18  2  0  0  0
 17  1  1  0  0  0
  8  3  1  0  0  0
 16 10  1  0  0  0
 28 19  1  0  0  0
 28 23  1  0  0  0
 32 33  1  0  0  0
 32 34  1  0  0  0
M  CHG 1  32   1
M  END
> <minimizedAffinity>
-7.16362

> <CNNscore>
0.3741721213

> <CNNaffinity>
5.9712538719

> <CNN_VS>
2.2342767715

> <CNNaffinity_variance>
0.1800494641

$$$$



 34 38  0  0  0  0  0  0  0  0999 V2000
    4.8505    0.8890   21.1604 N   0  0  0  0  0  0  0  0  0  0  0  0
    6.2337    0.3116   21.1033 C   0  0  0  0  0  0  0  0  0  0  0  0
    7.0686    0.2402   22.3474 C   0  0  0  0  0  0  0  0  0  0  0  0
    8.0154    0.1038   23.5027 C   0  0  0  0  0  0  0  0  0  0  0  0
    8.0710    0.3391   24.6935 O   0  0  0  0  0  0  0  0  0  0  0  0
    9.2799   -0.5229   22.9944 N   0  0  0  0  0  0  0  0  0  0  0  0
    9.1145   -0.7738   21.5248 C   0  0  0  0  0  0  0  0  0  0  0  0
    7.7479   -0.3022   21.1250 C   0  0  0  0  0  0  0  0  0  0  0  0
    7.1631   -0.3624   19.7449 C   0  0  0  0  0  0  0  0  0  0  0  0
    6.5202    0.7462   23.6487 C   0  0  0  0  0  0  0  0  0  0  0  0
    7.3550    0.6748   24.8928 C   0  0  0  0  0  0  0  0  0  0  0  0
    6.8066    1.1807   26.1940 C   0  0  0  0  0  0  0  0  0  0  0  0
    7.6415    1.1094   27.4383 F   0  0  0  0  0  0  0  0  0  0  0  0
    5.4234    1.7581   26.2511 C   0  0  0  0  0  0  0  0  0  0  0  0
    4.5885    1.8295   25.0070 C   0  0  0  0  0  0  0  0  0  0  0  0
    5.1369    1.3236   23.7058 C   0  0  0  0  0  0  0  0  0  0  0  0
    4.3021    1.3949   22.4616 C   0  0  0  0  0  0  0  0  0  0  0  0
    2.9188    1.9723   22.5187 O   0  0  0  0  0  0  0  0  0  0  0  0
   10.4962   -0.8425   23.8120 C   0  0  0  0  0  0  0  0  0  0  0  0
   11.6835    0.0736   23.7798 C   0  0  0  0  0  0  0  0  0  0  0  0
   12.8998   -0.2461   24.5975 N   0  0  0  0  0  0  0  0  0  0  0  0
   12.9287   -1.4817   25.4473 C   0  0  0  0  0  0  0  0  0  0  0  0
   11.7413   -2.3978   25.4795 C   0  0  0  0  0  0  0  0  0  0  0  0
   11.7702   -3.6335   26.3293 C   0  0  0  0  0  0  0  0  0  0  0  0
   10.5828   -4.5495   26.3615 C   0  0  0  0  0  0  0  0  0  0  0  0
    9.3666   -4.2299   25.5438 C   0  0  0  0  0  0  0  0  0  0  0  0
    9.3377   -2.9942   24.6940 C   0  0  0  0  0  0  0  0  0  0  0  0
   10.5250   -2.0782   24.6618 C   0  0  0  0  0  0  0  0  0  0  0  0
    4.0156    0.9603   19.9162 C   0  0  0  0  0  0  0  0  0  0  0  0
    3.8801    2.2588   19.1774 C   0  0  0  0  0  0  0  0  0  0  0  0
    1.3370    2.7492   19.3830 C   0  0  0  0  0  0  0  0  0  0  0  0
    2.5725    2.6267   18.5412 N   0  0  0  0  0  0  0  0  0  0  0  0
    2.5234    2.7936   17.5362 H   0  0  0  0  0  0  0  0  0  0  0  0
    3.4126    2.5434   17.9688 H   0  0  0  0  0  0  0  0  0  0  0  0
 31 32  1  0  0  0
 32 30  1  0  0  0
 30 29  1  0  0  0
 29  1  1  0  0  0
  1  2  1  0  0  0
  3  2  1  0  0  0
  3  4  1  0  0  0
  4  5  2  0  0  0
  4  6  1  0  0  0
  6 19  1  0  0  0
 19 20  2  0  0  0
 20 21  1  0  0  0
 21 22  2  0  0  0
 22 23  1  0  0  0
 23 24  2  0  0  0
 24 25  1  0  0  0
 25 26  2  0  0  0
 26 27  1  0  0  0
 27 28  2  0  0  0
  6  7  1  0  0  0
  7  8  1  0  0  0
  8  9  1  0  0  0
  3 10  1  0  0  0
 10 11  2  0  0  0
 11 12  1  0  0  0
 12 13  1  0  0  0
 12 14  2  0  0  0
 14 15  1  0  0  0
 15 16  2  0  0  0
 16 17  1  0  0  0
 17 18  2  0  0  0
 17  1  1  0  0  0
  8  3  1  0  0  0
 16 10  1  0  0  0
 28 19  1  0  0  0
 28 23  1  0  0  0
 32 33  1  0  0  0
 32 34  1  0  0  0
M  CHG 1  32   1
M  END
> <minimizedAffinity>
-7.91955

> <CNNscore>
0.3037173748

> <CNNaffinity>
6.0307388306

> <CNN_VS>
1.8316401243

> <CNNaffinity_variance>
0.2462340593

$$$$



 34 38  0  0  0  0  0  0  0  0999 V2000
    3.7780   -5.7773   26.1689 N   0  0  0  0  0  0  0  0  0  0  0  0
    5.0389   -5.7756   25.3565 C   0  0  0  0  0  0  0  0  0  0  0  0
    5.8902   -4.5421   25.2955 C   0  0  0  0  0  0  0  0  0  0  0  0
    6.8376   -3.3896   25.1405 C   0  0  0  0  0  0  0  0  0  0  0  0
    6.9724   -2.2395   25.5085 O   0  0  0  0  0  0  0  0  0  0  0  0
    7.9581   -3.8278   24.2447 N   0  0  0  0  0  0  0  0  0  0  0  0
    7.7032   -5.2512   23.8460 C   0  0  0  0  0  0  0  0  0  0  0  0
    6.4251   -5.6927   24.4955 C   0  0  0  0  0  0  0  0  0  0  0  0
    5.7930   -7.0470   24.3674 C   0  0  0  0  0  0  0  0  0  0  0  0
    5.4805   -3.3102   26.0470 C   0  0  0  0  0  0  0  0  0  0  0  0
    6.3317   -2.0767   25.9860 C   0  0  0  0  0  0  0  0  0  0  0  0
    5.9220   -0.8449   26.7374 C   0  0  0  0  0  0  0  0  0  0  0  0
    6.7733    0.3888   26.6765 F   0  0  0  0  0  0  0  0  0  0  0  0
    4.6610   -0.8465   27.5498 C   0  0  0  0  0  0  0  0  0  0  0  0
    3.8098   -2.0801   27.6108 C   0  0  0  0  0  0  0  0  0  0  0  0
    4.2195   -3.3119   26.8593 C   0  0  0  0  0  0  0  0  0  0  0  0
    3.3682   -4.5455   26.9203 C   0  0  0  0  0  0  0  0  0  0  0  0
    2.1073   -4.5472   27.7327 O   0  0  0  0  0  0  0  0  0  0  0  0
    9.1281   -2.9898   23.8218 C   0  0  0  0  0  0  0  0  0  0  0  0
    9.0520   -2.1757   22.5642 C   0  0  0  0  0  0  0  0  0  0  0  0
   10.2219   -1.3376   22.1413 N   0  0  0  0  0  0  0  0  0  0  0  0
   11.4680   -1.3137   22.9760 C   0  0  0  0  0  0  0  0  0  0  0  0
   11.5441   -2.1278   24.2336 C   0  0  0  0  0  0  0  0  0  0  0  0
   12.7902   -2.1038   25.0683 C   0  0  0  0  0  0  0  0  0  0  0  0
   12.8662   -2.9180   26.3259 C   0  0  0  0  0  0  0  0  0  0  0  0
   11.6963   -3.7560   26.7488 C   0  0  0  0  0  0  0  0  0  0  0  0
   10.4502   -3.7799   25.9141 C   0  0  0  0  0  0  0  0  0  0  0  0
   10.3741   -2.9658   24.6565 C   0  0  0  0  0  0  0  0  0  0  0  0
    2.9267   -7.0109   26.2298 C   0  0  0  0  0  0  0  0  0  0  0  0
    1.9017   -7.2681   25.1653 C   0  0  0  0  0  0  0  0  0  0  0  0
    0.7071   -6.4634   23.0030 C   0  0  0  0  0  0  0  0  0  0  0  0
    1.9017   -6.4471   23.9100 N   0  0  0  0  0  0  0  0  0  0  0  0
    2.7142   -5.8777   23.6731 H   0  0  0  0  0  0  0  0  0  0  0  0
    2.7141   -6.4360   24.5267 H   0  0  0  0  0  0  0  0  0  0  0  0
 31 32  1  0  0  0
 32 30  1  0  0  0
 30 29  1  0  0  0
 29  1  1  0  0  0
  1  2  1  0  0  0
  3  2  1  0  0  0
  3  4  1  0  0  0
  4  5  2  0  0  0
  4  6  1  0  0  0
  6 19  1  0  0  0
 19 20  2  0  0  0
 20 21  1  0  0  0
 21 22  2  0  0  0
 22 23  1  0  0  0
 23 24  2  0  0  0
 24 25  1  0  0  0
 25 26  2  0  0  0
 26 27  1  0  0  0
 27 28  2  0  0  0
  6  7  1  0  0  0
  7  8  1  0  0  0
  8  9  1  0  0  0
  3 10  1  0  0  0
 10 11  2  0  0  0
 11 12  1  0  0  0
 12 13  1  0  0  0
 12 14  2  0  0  0
 14 15  1  0  0  0
 15 16  2  0  0  0
 16 17  1  0  0  0
 17 18  2  0  0  0
 17  1  1  0  0  0
  8  3  1  0  0  0
 16 10  1  0  0  0
 28 19  1  0  0  0
 28 23  1  0  0  0
 32 33  1  0  0  0
 32 34  1  0  0  0
M  CHG 1  32   1
M  END
> <minimizedAffinity>
-6.89651

> <CNNscore>
0.2554171383

> <CNNaffinity>
6.0180540085

> <CNN_VS>
1.5371141434

> <CNNaffinity_variance>
0.0939516872

$$$$



 34 38  0  0  0  0  0  0  0  0999 V2000
    9.9925    0.3958   22.9854 N   0  0  0  0  0  0  0  0  0  0  0  0
    8.7912   -0.4933   22.8577 C   0  0  0  0  0  0  0  0  0  0  0  0
    8.7358   -1.7915   23.6071 C   0  0  0  0  0  0  0  0  0  0  0  0
    8.5391   -3.1115   24.2917 C   0  0  0  0  0  0  0  0  0  0  0  0
    9.1157   -3.8579   25.0577 O   0  0  0  0  0  0  0  0  0  0  0  0
    7.2020   -3.6525   23.8800 N   0  0  0  0  0  0  0  0  0  0  0  0
    6.5723   -2.6668   22.9410 C   0  0  0  0  0  0  0  0  0  0  0  0
    7.5203   -1.5166   22.7723 C   0  0  0  0  0  0  0  0  0  0  0  0
    7.2926   -0.3044   21.9186 C   0  0  0  0  0  0  0  0  0  0  0  0
    9.8818   -2.2006   24.4842 C   0  0  0  0  0  0  0  0  0  0  0  0
    9.8265   -3.4988   25.2336 C   0  0  0  0  0  0  0  0  0  0  0  0
   10.9724   -3.9079   26.1107 C   0  0  0  0  0  0  0  0  0  0  0  0
   10.9171   -5.2062   26.8601 F   0  0  0  0  0  0  0  0  0  0  0  0
   12.1738   -3.0188   26.2384 C   0  0  0  0  0  0  0  0  0  0  0  0
   12.2291   -1.7206   25.4891 C   0  0  0  0  0  0  0  0  0  0  0  0
   11.0832   -1.3115   24.6120 C   0  0  0  0  0  0  0  0  0  0  0  0
   11.1385   -0.0133   23.8625 C   0  0  0  0  0  0  0  0  0  0  0  0
   12.3398    0.8758   23.9903 O   0  0  0  0  0  0  0  0  0  0  0  0
    6.6002   -4.9512   24.3287 C   0  0  0  0  0  0  0  0  0  0  0  0
    7.0974   -6.2456   23.7564 C   0  0  0  0  0  0  0  0  0  0  0  0
    6.4956   -7.5443   24.2050 N   0  0  0  0  0  0  0  0  0  0  0  0
    5.3967   -7.5486   25.2259 C   0  0  0  0  0  0  0  0  0  0  0  0
    4.8996   -6.2542   25.7982 C   0  0  0  0  0  0  0  0  0  0  0  0
    3.8006   -6.2586   26.8192 C   0  0  0  0  0  0  0  0  0  0  0  0
    3.3035   -4.9642   27.3915 C   0  0  0  0  0  0  0  0  0  0  0  0
    3.9052   -3.6655   26.9428 C   0  0  0  0  0  0  0  0  0  0  0  0
    5.0041   -3.6612   25.9219 C   0  0  0  0  0  0  0  0  0  0  0  0
    5.5013   -4.9555   25.3496 C   0  0  0  0  0  0  0  0  0  0  0  0
   10.0478    1.6941   22.2360 C   0  0  0  0  0  0  0  0  0  0  0  0
   11.0846    2.7195   22.5877 C   0  0  0  0  0  0  0  0  0  0  0  0
   11.8259    5.1833   22.2274 C   0  0  0  0  0  0  0  0  0  0  0  0
   11.3321    3.8808   21.6712 N   0  0  0  0  0  0  0  0  0  0  0  0
   11.1646    3.7847   20.6696 H   0  0  0  0  0  0  0  0  0  0  0  0
   10.9963    2.9950   21.2929 H   0  0  0  0  0  0  0  0  0  0  0  0
 31 32  1  0  0  0
 32 30  1  0  0  0
 30 29  1  0  0  0
 29  1  1  0  0  0
  1  2  1  0  0  0
  3  2  1  0  0  0
  3  4  1  0  0  0
  4  5  2  0  0  0
  4  6  1  0  0  0
  6 19  1  0  0  0
 19 20  2  0  0  0
 20 21  1  0  0  0
 21 22  2  0  0  0
 22 23  1  0  0  0
 23 24  2  0  0  0
 24 25  1  0  0  0
 25 26  2  0  0  0
 26 27  1  0  0  0
 27 28  2  0  0  0
  6  7  1  0  0  0
  7  8  1  0  0  0
  8  9  1  0  0  0
  3 10  1  0  0  0
 10 11  2  0  0  0
 11 12  1  0  0  0
 12 13  1  0  0  0
 12 14  2  0  0  0
 14 15  1  0  0  0
 15 16  2  0  0  0
 16 17  1  0  0  0
 17 18  2  0  0  0
 17  1  1  0  0  0
  8  3  1  0  0  0
 16 10  1  0  0  0
 28 19  1  0  0  0
 28 23  1  0  0  0
 32 33  1  0  0  0
 32 34  1  0  0  0
M  CHG 1  32   1
M  END
> <minimizedAffinity>
-8.20357

> <CNNscore>
0.2459892482

> <CNNaffinity>
6.2135567665

> <CNN_VS>
1.5284681320

> <CNNaffinity_variance>
0.2109534740

$$$$
