


 33 37  0  0  0  0  0  0  0  0999 V2000
   -5.4102   -0.0367  -19.8478 C   0  0  0  0  0  0  0  0  0  0  0  0
   -4.2407    0.6992  -19.2642 C   0  0  0  0  0  0  0  0  0  0  0  0
   -3.6385    1.8572  -20.0035 C   0  0  0  0  0  0  0  0  0  0  0  0
   -4.2058    2.2792  -21.3263 C   0  0  0  0  0  0  0  0  0  0  0  0
   -5.3753    1.5433  -21.9099 C   0  0  0  0  0  0  0  0  0  0  0  0
   -5.9776    0.3854  -21.1706 C   0  0  0  0  0  0  0  0  0  0  0  0
   -5.9427    1.9654  -23.2328 C   0  0  0  0  0  0  0  0  0  0  0  0
   -5.3405    3.1233  -23.9721 C   0  0  0  0  0  0  0  0  0  0  0  0
   -4.1709    3.8592  -23.3885 C   0  0  0  0  0  0  0  0  0  0  0  0
   -3.6036    3.4371  -22.0656 O   0  0  0  0  0  0  0  0  0  0  0  0
   -6.6139    2.2708  -24.5390 N   0  0  0  0  0  0  0  0  0  0  0  0
   -7.7324    1.2891  -24.7262 C   0  0  0  0  0  0  0  0  0  0  0  0
   -8.6668    1.2299  -25.8981 O   0  0  0  0  0  0  0  0  0  0  0  0
   -7.7526    0.3768  -23.5356 N   0  0  0  0  0  0  0  0  0  0  0  0
   -6.6465    0.7948  -22.6127 C   0  0  0  0  0  0  0  0  0  0  0  0
   -6.5967    0.0993  -21.6177 O   0  0  0  0  0  0  0  0  0  0  0  0
   -6.3641    2.9895  -25.1638 H   0  0  0  0  0  0  0  0  0  0  0  0
   -8.7106   -0.7547  -23.3079 C   0  0  0  0  0  0  0  0  0  0  0  0
   -8.1919   -2.1479  -23.1086 C   0  0  0  0  0  0  0  0  0  0  0  0
   -9.1499   -3.2795  -22.8810 N   0  0  0  0  0  0  0  0  0  0  0  0
  -10.6266   -3.0177  -22.8526 C   0  0  0  0  0  0  0  0  0  0  0  0
  -11.1454   -1.6244  -23.0518 C   0  0  0  0  0  0  0  0  0  0  0  0
  -12.6221   -1.3626  -23.0235 C   0  0  0  0  0  0  0  0  0  0  0  0
  -13.1407    0.0307  -23.2227 C   0  0  0  0  0  0  0  0  0  0  0  0
  -12.1826    1.1622  -23.4504 C   0  0  0  0  0  0  0  0  0  0  0  0
  -10.7060    0.9005  -23.4788 C   0  0  0  0  0  0  0  0  0  0  0  0
  -10.1873   -0.4929  -23.2795 C   0  0  0  0  0  0  0  0  0  0  0  0
   -6.6146   -2.3525  -18.3693 N   0  0  0  0  0  0  0  0  0  0  0  0
   -6.0124   -1.1946  -19.1085 S   0  0  0  0  0  0  0  0  0  0  0  0
   -5.1286   -2.1391  -19.8679 O   0  0  0  0  0  0  0  0  0  0  0  0
   -6.8963   -0.2501  -18.3491 O   0  0  0  0  0  0  0  0  0  0  0  0
   -6.2989   -3.3024  -18.5651 H   0  0  0  0  0  0  0  0  0  0  0  0
   -7.3399   -2.1900  -17.6707 H   0  0  0  0  0  0  0  0  0  0  0  0
 28 29  1  0  0  0
 29 30  2  0  0  0
 29 31  2  0  0  0
 29  1  1  0  0  0
  1  2  2  0  0  0
  2  3  1  0  0  0
  3  4  2  0  0  0
  4  5  1  0  0  0
  5  6  2  0  0  0
  5  7  1  0  0  0
  7  8  1  0  0  0
  8  9  1  0  0  0
  9 10  1  0  0  0
  7 11  1  0  0  0
 11 12  1  0  0  0
 12 13  2  0  0  0
 12 14  1  0  0  0
 14 18  1  0  0  0
 18 19  2  0  0  0
 19 20  1  0  0  0
 20 21  2  0  0  0
 21 22  1  0  0  0
 22 23  2  0  0  0
 23 24  1  0  0  0
 24 25  2  0  0  0
 25 26  1  0  0  0
 26 27  2  0  0  0
 14 15  1  0  0  0
 15 16  2  0  0  0
  6  1  1  0  0  0
 15  7  1  0  0  0
 10  4  1  0  0  0
 27 18  1  0  0  0
 27 22  1  0  0  0
 28 32  1  0  0  0
 28 33  1  0  0  0
 11 17  1  0  0  0
M  END
> <minimizedAffinity>
-8.38138

> <CNNscore>
0.5846518278

> <CNNaffinity>
6.0528578758

> <CNN_VS>
3.5388143063

> <CNNaffinity_variance>
0.0874068290

$$$$



 33 37  0  0  0  0  0  0  0  0999 V2000
   -7.5081    1.2045  -24.4907 C   0  0  0  0  0  0  0  0  0  0  0  0
   -7.9612    1.2789  -25.9187 C   0  0  0  0  0  0  0  0  0  0  0  0
   -7.9744    0.0417  -26.7668 C   0  0  0  0  0  0  0  0  0  0  0  0
   -7.5345   -1.2698  -26.1869 C   0  0  0  0  0  0  0  0  0  0  0  0
   -7.0814   -1.3442  -24.7590 C   0  0  0  0  0  0  0  0  0  0  0  0
   -7.0682   -0.1070  -23.9109 C   0  0  0  0  0  0  0  0  0  0  0  0
   -6.6414   -2.6558  -24.1790 C   0  0  0  0  0  0  0  0  0  0  0  0
   -6.6546   -3.8929  -25.0271 C   0  0  0  0  0  0  0  0  0  0  0  0
   -7.1078   -3.8185  -26.4551 C   0  0  0  0  0  0  0  0  0  0  0  0
   -7.5477   -2.5070  -27.0350 O   0  0  0  0  0  0  0  0  0  0  0  0
   -6.1758   -3.8900  -23.4649 N   0  0  0  0  0  0  0  0  0  0  0  0
   -5.8209   -3.5060  -22.0590 C   0  0  0  0  0  0  0  0  0  0  0  0
   -5.3095   -4.4311  -20.9947 O   0  0  0  0  0  0  0  0  0  0  0  0
   -6.0673   -2.0344  -21.9041 N   0  0  0  0  0  0  0  0  0  0  0  0
   -6.5744   -1.5090  -23.2144 C   0  0  0  0  0  0  0  0  0  0  0  0
   -6.7991   -0.3158  -23.1699 O   0  0  0  0  0  0  0  0  0  0  0  0
   -6.1139   -4.7934  -23.8512 H   0  0  0  0  0  0  0  0  0  0  0  0
   -5.8455   -1.2297  -20.6579 C   0  0  0  0  0  0  0  0  0  0  0  0
   -6.7339   -1.4323  -19.4663 C   0  0  0  0  0  0  0  0  0  0  0  0
   -6.5121   -0.6275  -18.2201 N   0  0  0  0  0  0  0  0  0  0  0  0
   -5.4020    0.3798  -18.1654 C   0  0  0  0  0  0  0  0  0  0  0  0
   -4.5136    0.5824  -19.3569 C   0  0  0  0  0  0  0  0  0  0  0  0
   -3.4035    1.5897  -19.3022 C   0  0  0  0  0  0  0  0  0  0  0  0
   -2.5152    1.7921  -20.4938 C   0  0  0  0  0  0  0  0  0  0  0  0
   -2.7370    0.9874  -21.7401 C   0  0  0  0  0  0  0  0  0  0  0  0
   -3.8470   -0.0198  -21.7948 C   0  0  0  0  0  0  0  0  0  0  0  0
   -4.7354   -0.2224  -20.6032 C   0  0  0  0  0  0  0  0  0  0  0  0
   -7.4817    3.6789  -22.7946 N   0  0  0  0  0  0  0  0  0  0  0  0
   -7.4949    2.4417  -23.6427 S   0  0  0  0  0  0  0  0  0  0  0  0
   -8.7254    1.9656  -22.9290 O   0  0  0  0  0  0  0  0  0  0  0  0
   -6.2644    2.9178  -24.3563 O   0  0  0  0  0  0  0  0  0  0  0  0
   -8.2018    3.8191  -22.0860 H   0  0  0  0  0  0  0  0  0  0  0  0
   -6.7526    4.3799  -22.9265 H   0  0  0  0  0  0  0  0  0  0  0  0
 28 29  1  0  0  0
 29 30  2  0  0  0
 29 31  2  0  0  0
 29  1  1  0  0  0
  1  2  2  0  0  0
  2  3  1  0  0  0
  3  4  2  0  0  0
  4  5  1  0  0  0
  5  6  2  0  0  0
  5  7  1  0  0  0
  7  8  1  0  0  0
  8  9  1  0  0  0
  9 10  1  0  0  0
  7 11  1  0  0  0
 11 12  1  0  0  0
 12 13  2  0  0  0
 12 14  1  0  0  0
 14 18  1  0  0  0
 18 19  2  0  0  0
 19 20  1  0  0  0
 20 21  2  0  0  0
 21 22  1  0  0  0
 22 23  2  0  0  0
 23 24  1  0  0  0
 24 25  2  0  0  0
 25 26  1  0  0  0
 26 27  2  0  0  0
 14 15  1  0  0  0
 15 16  2  0  0  0
  6  1  1  0  0  0
 15  7  1  0  0  0
 10  4  1  0  0  0
 27 18  1  0  0  0
 27 22  1  0  0  0
 28 32  1  0  0  0
 28 33  1  0  0  0
 11 17  1  0  0  0
M  END
> <minimizedAffinity>
-7.05969

> <CNNscore>
0.5783595443

> <CNNaffinity>
5.7360191345

> <CNN_VS>
3.3174815178

> <CNNaffinity_variance>
0.0630683750

$$$$



 33 37  0  0  0  0  0  0  0  0999 V2000
   -7.0242   -0.9278  -20.7174 C   0  0  0  0  0  0  0  0  0  0  0  0
   -8.3880   -1.5007  -20.9661 C   0  0  0  0  0  0  0  0  0  0  0  0
   -9.1795   -1.0612  -22.1620 C   0  0  0  0  0  0  0  0  0  0  0  0
   -8.6074   -0.0487  -23.1093 C   0  0  0  0  0  0  0  0  0  0  0  0
   -7.2436    0.5243  -22.8606 C   0  0  0  0  0  0  0  0  0  0  0  0
   -6.4521    0.0847  -21.6647 C   0  0  0  0  0  0  0  0  0  0  0  0
   -6.6714    1.5369  -23.8079 C   0  0  0  0  0  0  0  0  0  0  0  0
   -7.4629    1.9764  -25.0038 C   0  0  0  0  0  0  0  0  0  0  0  0
   -8.8267    1.4034  -25.2525 C   0  0  0  0  0  0  0  0  0  0  0  0
   -9.3989    0.3909  -24.3052 O   0  0  0  0  0  0  0  0  0  0  0  0
   -5.9722    2.5519  -24.6628 N   0  0  0  0  0  0  0  0  0  0  0  0
   -4.6361    2.8378  -24.0440 C   0  0  0  0  0  0  0  0  0  0  0  0
   -3.6072    3.7941  -24.5701 O   0  0  0  0  0  0  0  0  0  0  0  0
   -4.5094    1.9994  -22.8065 N   0  0  0  0  0  0  0  0  0  0  0  0
   -5.7673    1.1954  -22.6607 C   0  0  0  0  0  0  0  0  0  0  0  0
   -5.7420    0.4856  -21.6749 O   0  0  0  0  0  0  0  0  0  0  0  0
   -6.3279    2.9590  -25.4856 H   0  0  0  0  0  0  0  0  0  0  0  0
   -3.3317    1.9702  -21.8781 C   0  0  0  0  0  0  0  0  0  0  0  0
   -3.4780    2.4535  -20.4657 C   0  0  0  0  0  0  0  0  0  0  0  0
   -2.3002    2.4243  -19.5372 N   0  0  0  0  0  0  0  0  0  0  0  0
   -0.9762    1.9117  -20.0212 C   0  0  0  0  0  0  0  0  0  0  0  0
   -0.8299    1.4284  -21.4336 C   0  0  0  0  0  0  0  0  0  0  0  0
    0.4941    0.9158  -21.9176 C   0  0  0  0  0  0  0  0  0  0  0  0
    0.6403    0.4324  -23.3300 C   0  0  0  0  0  0  0  0  0  0  0  0
   -0.5374    0.4616  -24.2585 C   0  0  0  0  0  0  0  0  0  0  0  0
   -1.8614    0.9742  -23.7746 C   0  0  0  0  0  0  0  0  0  0  0  0
   -2.0076    1.4576  -22.3621 C   0  0  0  0  0  0  0  0  0  0  0  0
   -5.4411   -1.8069  -18.3256 N   0  0  0  0  0  0  0  0  0  0  0  0
   -6.2327   -1.3673  -19.5215 S   0  0  0  0  0  0  0  0  0  0  0  0
   -7.0001   -0.4079  -18.6609 O   0  0  0  0  0  0  0  0  0  0  0  0
   -5.4653   -2.3268  -20.3821 O   0  0  0  0  0  0  0  0  0  0  0  0
   -5.6239   -1.3913  -17.4122 H   0  0  0  0  0  0  0  0  0  0  0  0
   -4.7201   -2.5213  -18.4258 H   0  0  0  0  0  0  0  0  0  0  0  0
 28 29  1  0  0  0
 29 30  2  0  0  0
 29 31  2  0  0  0
 29  1  1  0  0  0
  1  2  2  0  0  0
  2  3  1  0  0  0
  3  4  2  0  0  0
  4  5  1  0  0  0
  5  6  2  0  0  0
  5  7  1  0  0  0
  7  8  1  0  0  0
  8  9  1  0  0  0
  9 10  1  0  0  0
  7 11  1  0  0  0
 11 12  1  0  0  0
 12 13  2  0  0  0
 12 14  1  0  0  0
 14 18  1  0  0  0
 18 19  2  0  0  0
 19 20  1  0  0  0
 20 21  2  0  0  0
 21 22  1  0  0  0
 22 23  2  0  0  0
 23 24  1  0  0  0
 24 25  2  0  0  0
 25 26  1  0  0  0
 26 27  2  0  0  0
 14 15  1  0  0  0
 15 16  2  0  0  0
  6  1  1  0  0  0
 15  7  1  0  0  0
 10  4  1  0  0  0
 27 18  1  0  0  0
 27 22  1  0  0  0
 28 32  1  0  0  0
 28 33  1  0  0  0
 11 17  1  0  0  0
M  END
> <minimizedAffinity>
-7.32371

> <CNNscore>
0.5420095921

> <CNNaffinity>
5.8521094322

> <CNN_VS>
3.1718995571

> <CNNaffinity_variance>
0.0599773638

$$$$



 33 37  0  0  0  0  0  0  0  0999 V2000
   -5.4140   -0.1699  -19.8570 C   0  0  0  0  0  0  0  0  0  0  0  0
   -4.5106    0.7007  -19.0349 C   0  0  0  0  0  0  0  0  0  0  0  0
   -3.3185    1.3544  -19.6686 C   0  0  0  0  0  0  0  0  0  0  0  0
   -3.0298    1.1376  -21.1244 C   0  0  0  0  0  0  0  0  0  0  0  0
   -3.9332    0.2670  -21.9466 C   0  0  0  0  0  0  0  0  0  0  0  0
   -5.1252   -0.3867  -21.3129 C   0  0  0  0  0  0  0  0  0  0  0  0
   -3.6445    0.0502  -23.4025 C   0  0  0  0  0  0  0  0  0  0  0  0
   -2.4524    0.7040  -24.0362 C   0  0  0  0  0  0  0  0  0  0  0  0
   -1.5490    1.5746  -23.2140 C   0  0  0  0  0  0  0  0  0  0  0  0
   -1.8378    1.7914  -21.7581 O   0  0  0  0  0  0  0  0  0  0  0  0
   -3.4838   -0.2574  -24.8618 N   0  0  0  0  0  0  0  0  0  0  0  0
   -4.6071   -1.1634  -25.2710 C   0  0  0  0  0  0  0  0  0  0  0  0
   -4.8355   -1.7194  -26.6453 O   0  0  0  0  0  0  0  0  0  0  0  0
   -5.4621   -1.4157  -24.0645 N   0  0  0  0  0  0  0  0  0  0  0  0
   -4.8671   -0.6656  -22.9098 C   0  0  0  0  0  0  0  0  0  0  0  0
   -5.5069   -0.8203  -21.8885 O   0  0  0  0  0  0  0  0  0  0  0  0
   -2.7669    0.0766  -25.4481 H   0  0  0  0  0  0  0  0  0  0  0  0
   -6.6954   -2.2683  -24.0206 C   0  0  0  0  0  0  0  0  0  0  0  0
   -6.5762   -3.7627  -24.0689 C   0  0  0  0  0  0  0  0  0  0  0  0
   -7.8095   -4.6153  -24.0250 N   0  0  0  0  0  0  0  0  0  0  0  0
   -9.1621   -3.9734  -23.9327 C   0  0  0  0  0  0  0  0  0  0  0  0
   -9.2814   -2.4790  -23.8844 C   0  0  0  0  0  0  0  0  0  0  0  0
  -10.6340   -1.8371  -23.7921 C   0  0  0  0  0  0  0  0  0  0  0  0
  -10.7531   -0.3426  -23.7438 C   0  0  0  0  0  0  0  0  0  0  0  0
   -9.5198    0.5100  -23.7877 C   0  0  0  0  0  0  0  0  0  0  0  0
   -8.1673   -0.1318  -23.8800 C   0  0  0  0  0  0  0  0  0  0  0  0
   -8.0480   -1.6264  -23.9283 C   0  0  0  0  0  0  0  0  0  0  0  0
   -7.7981   -1.4774  -18.5896 N   0  0  0  0  0  0  0  0  0  0  0  0
   -6.6060   -0.8237  -19.2233 S   0  0  0  0  0  0  0  0  0  0  0  0
   -7.5073   -0.1243  -20.1972 O   0  0  0  0  0  0  0  0  0  0  0  0
   -5.7047   -1.5231  -18.2494 O   0  0  0  0  0  0  0  0  0  0  0  0
   -8.7342   -1.2878  -18.9477 H   0  0  0  0  0  0  0  0  0  0  0  0
   -7.6726   -2.1116  -17.8006 H   0  0  0  0  0  0  0  0  0  0  0  0
 28 29  1  0  0  0
 29 30  2  0  0  0
 29 31  2  0  0  0
 29  1  1  0  0  0
  1  2  2  0  0  0
  2  3  1  0  0  0
  3  4  2  0  0  0
  4  5  1  0  0  0
  5  6  2  0  0  0
  5  7  1  0  0  0
  7  8  1  0  0  0
  8  9  1  0  0  0
  9 10  1  0  0  0
  7 11  1  0  0  0
 11 12  1  0  0  0
 12 13  2  0  0  0
 12 14  1  0  0  0
 14 18  1  0  0  0
 18 19  2  0  0  0
 19 20  1  0  0  0
 20 21  2  0  0  0
 21 22  1  0  0  0
 22 23  2  0  0  0
 23 24  1  0  0  0
 24 25  2  0  0  0
 25 26  1  0  0  0
 26 27  2  0  0  0
 14 15  1  0  0  0
 15 16  2  0  0  0
  6  1  1  0  0  0
 15  7  1  0  0  0
 10  4  1  0  0  0
 27 18  1  0  0  0
 27 22  1  0  0  0
 28 32  1  0  0  0
 28 33  1  0  0  0
 11 17  1  0  0  0
M  END
> <minimizedAffinity>
-7.97439

> <CNNscore>
0.3332065940

> <CNNaffinity>
5.5749788284

> <CNN_VS>
1.8576197624

> <CNNaffinity_variance>
0.0637442321

$$$$



 33 37  0  0  0  0  0  0  0  0999 V2000
   -3.6712   -0.0817  -24.6496 C   0  0  0  0  0  0  0  0  0  0  0  0
   -2.3860    0.6740  -24.8138 C   0  0  0  0  0  0  0  0  0  0  0  0
   -1.7506    1.3396  -23.6291 C   0  0  0  0  0  0  0  0  0  0  0  0
   -2.4005    1.2494  -22.2803 C   0  0  0  0  0  0  0  0  0  0  0  0
   -3.6857    0.4936  -22.1161 C   0  0  0  0  0  0  0  0  0  0  0  0
   -4.3210   -0.1719  -23.3007 C   0  0  0  0  0  0  0  0  0  0  0  0
   -4.3357    0.4034  -20.7671 C   0  0  0  0  0  0  0  0  0  0  0  0
   -3.7004    1.0690  -19.5825 C   0  0  0  0  0  0  0  0  0  0  0  0
   -2.4151    1.8248  -19.7468 C   0  0  0  0  0  0  0  0  0  0  0  0
   -1.7652    1.9150  -21.0956 O   0  0  0  0  0  0  0  0  0  0  0  0
   -5.0979    0.2279  -19.4873 N   0  0  0  0  0  0  0  0  0  0  0  0
   -6.3176   -0.5935  -19.7830 C   0  0  0  0  0  0  0  0  0  0  0  0
   -7.3624   -1.0097  -18.7904 O   0  0  0  0  0  0  0  0  0  0  0  0
   -6.3093   -0.9257  -21.2458 N   0  0  0  0  0  0  0  0  0  0  0  0
   -5.0843   -0.3096  -21.8540 C   0  0  0  0  0  0  0  0  0  0  0  0
   -5.0049   -0.5353  -23.0452 O   0  0  0  0  0  0  0  0  0  0  0  0
   -4.8425    0.5886  -18.6075 H   0  0  0  0  0  0  0  0  0  0  0  0
   -7.3441   -1.7324  -21.9727 C   0  0  0  0  0  0  0  0  0  0  0  0
   -7.1167   -3.1939  -22.2220 C   0  0  0  0  0  0  0  0  0  0  0  0
   -8.1515   -4.0006  -22.9489 N   0  0  0  0  0  0  0  0  0  0  0  0
   -9.4137   -3.3458  -23.4265 C   0  0  0  0  0  0  0  0  0  0  0  0
   -9.6411   -1.8842  -23.1772 C   0  0  0  0  0  0  0  0  0  0  0  0
  -10.9033   -1.2293  -23.6547 C   0  0  0  0  0  0  0  0  0  0  0  0
  -11.1305    0.2322  -23.4053 C   0  0  0  0  0  0  0  0  0  0  0  0
  -10.0957    1.0389  -22.6785 C   0  0  0  0  0  0  0  0  0  0  0  0
   -8.8336    0.3841  -22.2009 C   0  0  0  0  0  0  0  0  0  0  0  0
   -8.6063   -1.0775  -22.4503 C   0  0  0  0  0  0  0  0  0  0  0  0
   -4.9418   -1.4129  -27.0188 N   0  0  0  0  0  0  0  0  0  0  0  0
   -4.3065   -0.7473  -25.8342 S   0  0  0  0  0  0  0  0  0  0  0  0
   -3.1837   -1.7410  -25.8781 O   0  0  0  0  0  0  0  0  0  0  0  0
   -5.4293    0.2463  -25.7903 O   0  0  0  0  0  0  0  0  0  0  0  0
   -4.4966   -2.2244  -27.4475 H   0  0  0  0  0  0  0  0  0  0  0  0
   -5.8190   -1.0540  -27.3958 H   0  0  0  0  0  0  0  0  0  0  0  0
 28 29  1  0  0  0
 29 30  2  0  0  0
 29 31  2  0  0  0
 29  1  1  0  0  0
  1  2  2  0  0  0
  2  3  1  0  0  0
  3  4  2  0  0  0
  4  5  1  0  0  0
  5  6  2  0  0  0
  5  7  1  0  0  0
  7  8  1  0  0  0
  8  9  1  0  0  0
  9 10  1  0  0  0
  7 11  1  0  0  0
 11 12  1  0  0  0
 12 13  2  0  0  0
 12 14  1  0  0  0
 14 18  1  0  0  0
 18 19  2  0  0  0
 19 20  1  0  0  0
 20 21  2  0  0  0
 21 22  1  0  0  0
 22 23  2  0  0  0
 23 24  1  0  0  0
 24 25  2  0  0  0
 25 26  1  0  0  0
 26 27  2  0  0  0
 14 15  1  0  0  0
 15 16  2  0  0  0
  6  1  1  0  0  0
 15  7  1  0  0  0
 10  4  1  0  0  0
 27 18  1  0  0  0
 27 22  1  0  0  0
 28 32  1  0  0  0
 28 33  1  0  0  0
 11 17  1  0  0  0
M  END
> <minimizedAffinity>
-7.53834

> <CNNscore>
0.3197566569

> <CNNaffinity>
5.5068945885

> <CNN_VS>
1.7608661652

> <CNNaffinity_variance>
0.2033520043

$$$$



 33 37  0  0  0  0  0  0  0  0999 V2000
   -5.0893    0.0609  -19.8303 C   0  0  0  0  0  0  0  0  0  0  0  0
   -3.9536    0.8287  -19.2215 C   0  0  0  0  0  0  0  0  0  0  0  0
   -3.3830    2.0172  -19.9370 C   0  0  0  0  0  0  0  0  0  0  0  0
   -3.9481    2.4380  -21.2612 C   0  0  0  0  0  0  0  0  0  0  0  0
   -5.0838    1.6702  -21.8699 C   0  0  0  0  0  0  0  0  0  0  0  0
   -5.6544    0.4817  -21.1545 C   0  0  0  0  0  0  0  0  0  0  0  0
   -5.6490    2.0909  -23.1942 C   0  0  0  0  0  0  0  0  0  0  0  0
   -5.0784    3.2795  -23.9096 C   0  0  0  0  0  0  0  0  0  0  0  0
   -3.9426    4.0472  -23.3008 C   0  0  0  0  0  0  0  0  0  0  0  0
   -3.3775    3.6265  -21.9766 O   0  0  0  0  0  0  0  0  0  0  0  0
   -6.3140    2.3913  -24.5047 N   0  0  0  0  0  0  0  0  0  0  0  0
   -7.3951    1.3740  -24.7199 C   0  0  0  0  0  0  0  0  0  0  0  0
   -8.3121    1.2990  -25.9046 O   0  0  0  0  0  0  0  0  0  0  0  0
   -7.3983    0.4449  -23.5422 N   0  0  0  0  0  0  0  0  0  0  0  0
   -6.3191    0.8880  -22.5994 C   0  0  0  0  0  0  0  0  0  0  0  0
   -6.2575    0.1806  -21.6134 O   0  0  0  0  0  0  0  0  0  0  0  0
   -6.0817    3.1270  -25.1163 H   0  0  0  0  0  0  0  0  0  0  0  0
   -8.3190   -0.7224  -23.3426 C   0  0  0  0  0  0  0  0  0  0  0  0
   -9.6580   -0.5196  -22.6978 C   0  0  0  0  0  0  0  0  0  0  0  0
  -10.5787   -1.6869  -22.4981 N   0  0  0  0  0  0  0  0  0  0  0  0
  -10.1603   -3.0569  -22.9433 C   0  0  0  0  0  0  0  0  0  0  0  0
   -8.8212   -3.2596  -23.5881 C   0  0  0  0  0  0  0  0  0  0  0  0
   -8.4029   -4.6295  -24.0333 C   0  0  0  0  0  0  0  0  0  0  0  0
   -7.0638   -4.8321  -24.6782 C   0  0  0  0  0  0  0  0  0  0  0  0
   -6.1431   -3.6649  -24.8778 C   0  0  0  0  0  0  0  0  0  0  0  0
   -6.5614   -2.2950  -24.4326 C   0  0  0  0  0  0  0  0  0  0  0  0
   -7.9006   -2.0923  -23.7878 C   0  0  0  0  0  0  0  0  0  0  0  0
   -6.2305   -2.3161  -18.3995 N   0  0  0  0  0  0  0  0  0  0  0  0
   -5.6599   -1.1276  -19.1149 S   0  0  0  0  0  0  0  0  0  0  0  0
   -5.0680   -2.0358  -20.1516 O   0  0  0  0  0  0  0  0  0  0  0  0
   -6.2517   -0.2194  -18.0781 O   0  0  0  0  0  0  0  0  0  0  0  0
   -6.0759   -3.2551  -18.7668 H   0  0  0  0  0  0  0  0  0  0  0  0
   -6.7730   -2.1854  -17.5457 H   0  0  0  0  0  0  0  0  0  0  0  0
 28 29  1  0  0  0
 29 30  2  0  0  0
 29 31  2  0  0  0
 29  1  1  0  0  0
  1  2  2  0  0  0
  2  3  1  0  0  0
  3  4  2  0  0  0
  4  5  1  0  0  0
  5  6  2  0  0  0
  5  7  1  0  0  0
  7  8  1  0  0  0
  8  9  1  0  0  0
  9 10  1  0  0  0
  7 11  1  0  0  0
 11 12  1  0  0  0
 12 13  2  0  0  0
 12 14  1  0  0  0
 14 18  1  0  0  0
 18 19  2  0  0  0
 19 20  1  0  0  0
 20 21  2  0  0  0
 21 22  1  0  0  0
 22 23  2  0  0  0
 23 24  1  0  0  0
 24 25  2  0  0  0
 25 26  1  0  0  0
 26 27  2  0  0  0
 14 15  1  0  0  0
 15 16  2  0  0  0
  6  1  1  0  0  0
 15  7  1  0  0  0
 10  4  1  0  0  0
 27 18  1  0  0  0
 27 22  1  0  0  0
 28 32  1  0  0  0
 28 33  1  0  0  0
 11 17  1  0  0  0
M  END
> <minimizedAffinity>
-7.41138

> <CNNscore>
0.3124452531

> <CNNaffinity>
5.6449894905

> <CNN_VS>
1.7637501955

> <CNNaffinity_variance>
0.0433145240

$$$$



 33 37  0  0  0  0  0  0  0  0999 V2000
  -10.7537   -0.1683  -23.5531 C   0  0  0  0  0  0  0  0  0  0  0  0
  -12.1885   -0.6038  -23.5122 C   0  0  0  0  0  0  0  0  0  0  0  0
  -13.2844    0.4194  -23.5579 C   0  0  0  0  0  0  0  0  0  0  0  0
  -12.9455    1.8780  -23.6446 C   0  0  0  0  0  0  0  0  0  0  0  0
  -11.5107    2.3135  -23.6855 C   0  0  0  0  0  0  0  0  0  0  0  0
  -10.4148    1.2903  -23.6398 C   0  0  0  0  0  0  0  0  0  0  0  0
  -11.1717    3.7721  -23.7722 C   0  0  0  0  0  0  0  0  0  0  0  0
  -12.2676    4.7953  -23.8179 C   0  0  0  0  0  0  0  0  0  0  0  0
  -13.7025    4.3598  -23.7770 C   0  0  0  0  0  0  0  0  0  0  0  0
  -14.0414    2.9012  -23.6903 O   0  0  0  0  0  0  0  0  0  0  0  0
  -10.6820    5.1873  -23.8581 N   0  0  0  0  0  0  0  0  0  0  0  0
   -9.1823    5.1586  -23.8734 C   0  0  0  0  0  0  0  0  0  0  0  0
   -8.2784    6.3532  -23.9515 O   0  0  0  0  0  0  0  0  0  0  0  0
   -8.7452    3.7257  -23.7970 N   0  0  0  0  0  0  0  0  0  0  0  0
   -9.9748    2.8688  -23.7344 C   0  0  0  0  0  0  0  0  0  0  0  0
   -9.7027    1.6864  -23.6703 O   0  0  0  0  0  0  0  0  0  0  0  0
  -11.2458    5.9934  -23.8975 H   0  0  0  0  0  0  0  0  0  0  0  0
   -7.3276    3.2358  -23.7852 C   0  0  0  0  0  0  0  0  0  0  0  0
   -6.6769    2.8537  -22.4888 C   0  0  0  0  0  0  0  0  0  0  0  0
   -5.2592    2.3638  -22.4769 N   0  0  0  0  0  0  0  0  0  0  0  0
   -4.4923    2.2559  -23.7615 C   0  0  0  0  0  0  0  0  0  0  0  0
   -5.1429    2.6379  -25.0579 C   0  0  0  0  0  0  0  0  0  0  0  0
   -4.3759    2.5300  -26.3425 C   0  0  0  0  0  0  0  0  0  0  0  0
   -5.0267    2.9121  -27.6388 C   0  0  0  0  0  0  0  0  0  0  0  0
   -6.4444    3.4021  -27.6507 C   0  0  0  0  0  0  0  0  0  0  0  0
   -7.2113    3.5100  -26.3662 C   0  0  0  0  0  0  0  0  0  0  0  0
   -6.5606    3.1279  -25.0697 C   0  0  0  0  0  0  0  0  0  0  0  0
   -8.5619   -2.2147  -23.4616 N   0  0  0  0  0  0  0  0  0  0  0  0
   -9.6578   -1.1915  -23.5074 S   0  0  0  0  0  0  0  0  0  0  0  0
  -10.1629   -1.7897  -24.7869 O   0  0  0  0  0  0  0  0  0  0  0  0
   -9.1528   -0.5934  -22.2278 O   0  0  0  0  0  0  0  0  0  0  0  0
   -8.4868   -2.9149  -24.1996 H   0  0  0  0  0  0  0  0  0  0  0  0
   -7.8919   -2.2104  -22.6926 H   0  0  0  0  0  0  0  0  0  0  0  0
 28 29  1  0  0  0
 29 30  2  0  0  0
 29 31  2  0  0  0
 29  1  1  0  0  0
  1  2  2  0  0  0
  2  3  1  0  0  0
  3  4  2  0  0  0
  4  5  1  0  0  0
  5  6  2  0  0  0
  5  7  1  0  0  0
  7  8  1  0  0  0
  8  9  1  0  0  0
  9 10  1  0  0  0
  7 11  1  0  0  0
 11 12  1  0  0  0
 12 13  2  0  0  0
 12 14  1  0  0  0
 14 18  1  0  0  0
 18 19  2  0  0  0
 19 20  1  0  0  0
 20 21  2  0  0  0
 21 22  1  0  0  0
 22 23  2  0  0  0
 23 24  1  0  0  0
 24 25  2  0  0  0
 25 26  1  0  0  0
 26 27  2  0  0  0
 14 15  1  0  0  0
 15 16  2  0  0  0
  6  1  1  0  0  0
 15  7  1  0  0  0
 10  4  1  0  0  0
 27 18  1  0  0  0
 27 22  1  0  0  0
 28 32  1  0  0  0
 28 33  1  0  0  0
 11 17  1  0  0  0
M  END
> <minimizedAffinity>
-6.57032

> <CNNscore>
0.3078823984

> <CNNaffinity>
5.3992700577

> <CNN_VS>
1.6623401642

> <CNNaffinity_variance>
0.1353621632

$$$$



 33 37  0  0  0  0  0  0  0  0999 V2000
   -5.4856   -0.2587  -19.9790 C   0  0  0  0  0  0  0  0  0  0  0  0
   -4.5246    0.5543  -19.1634 C   0  0  0  0  0  0  0  0  0  0  0  0
   -3.3208    1.1684  -19.8146 C   0  0  0  0  0  0  0  0  0  0  0  0
   -3.0782    0.9694  -21.2813 C   0  0  0  0  0  0  0  0  0  0  0  0
   -4.0393    0.1563  -22.0969 C   0  0  0  0  0  0  0  0  0  0  0  0
   -5.2430   -0.4577  -21.4457 C   0  0  0  0  0  0  0  0  0  0  0  0
   -3.7967   -0.0428  -23.5638 C   0  0  0  0  0  0  0  0  0  0  0  0
   -2.5929    0.5713  -24.2150 C   0  0  0  0  0  0  0  0  0  0  0  0
   -1.6318    1.3844  -23.3993 C   0  0  0  0  0  0  0  0  0  0  0  0
   -1.8745    1.5834  -21.9325 O   0  0  0  0  0  0  0  0  0  0  0  0
   -3.6860   -0.3268  -25.0324 N   0  0  0  0  0  0  0  0  0  0  0  0
   -4.8581   -1.1741  -25.4303 C   0  0  0  0  0  0  0  0  0  0  0  0
   -5.1448   -1.6911  -26.8089 O   0  0  0  0  0  0  0  0  0  0  0  0
   -5.6932   -1.4137  -24.2074 N   0  0  0  0  0  0  0  0  0  0  0  0
   -5.0372   -0.7145  -23.0539 C   0  0  0  0  0  0  0  0  0  0  0  0
   -5.6576   -0.8622  -22.0198 O   0  0  0  0  0  0  0  0  0  0  0  0
   -2.9698   -0.0124  -25.6303 H   0  0  0  0  0  0  0  0  0  0  0  0
   -6.9615   -2.2123  -24.1486 C   0  0  0  0  0  0  0  0  0  0  0  0
   -8.2735   -1.5207  -23.9244 C   0  0  0  0  0  0  0  0  0  0  0  0
   -9.5419   -2.3193  -23.8655 N   0  0  0  0  0  0  0  0  0  0  0  0
   -9.4982   -3.8095  -24.0308 C   0  0  0  0  0  0  0  0  0  0  0  0
   -8.1862   -4.5012  -24.2550 C   0  0  0  0  0  0  0  0  0  0  0  0
   -8.1426   -5.9914  -24.4203 C   0  0  0  0  0  0  0  0  0  0  0  0
   -6.8305   -6.6829  -24.6445 C   0  0  0  0  0  0  0  0  0  0  0  0
   -5.5622   -5.8843  -24.7033 C   0  0  0  0  0  0  0  0  0  0  0  0
   -5.6058   -4.3942  -24.5381 C   0  0  0  0  0  0  0  0  0  0  0  0
   -6.9179   -3.7026  -24.3139 C   0  0  0  0  0  0  0  0  0  0  0  0
   -7.8931   -1.4867  -18.6766 N   0  0  0  0  0  0  0  0  0  0  0  0
   -6.6894   -0.8727  -19.3278 S   0  0  0  0  0  0  0  0  0  0  0  0
   -5.7963   -1.6255  -18.3867 O   0  0  0  0  0  0  0  0  0  0  0  0
   -7.5825   -0.1199  -20.2689 O   0  0  0  0  0  0  0  0  0  0  0  0
   -7.7764   -2.1388  -17.9010 H   0  0  0  0  0  0  0  0  0  0  0  0
   -8.8283   -1.2522  -19.0094 H   0  0  0  0  0  0  0  0  0  0  0  0
 28 29  1  0  0  0
 29 30  2  0  0  0
 29 31  2  0  0  0
 29  1  1  0  0  0
  1  2  2  0  0  0
  2  3  1  0  0  0
  3  4  2  0  0  0
  4  5  1  0  0  0
  5  6  2  0  0  0
  5  7  1  0  0  0
  7  8  1  0  0  0
  8  9  1  0  0  0
  9 10  1  0  0  0
  7 11  1  0  0  0
 11 12  1  0  0  0
 12 13  2  0  0  0
 12 14  1  0  0  0
 14 18  1  0  0  0
 18 19  2  0  0  0
 19 20  1  0  0  0
 20 21  2  0  0  0
 21 22  1  0  0  0
 22 23  2  0  0  0
 23 24  1  0  0  0
 24 25  2  0  0  0
 25 26  1  0  0  0
 26 27  2  0  0  0
 14 15  1  0  0  0
 15 16  2  0  0  0
  6  1  1  0  0  0
 15  7  1  0  0  0
 10  4  1  0  0  0
 27 18  1  0  0  0
 27 22  1  0  0  0
 28 32  1  0  0  0
 28 33  1  0  0  0
 11 17  1  0  0  0
M  END
> <minimizedAffinity>
-7.59968

> <CNNscore>
0.2858500779

> <CNNaffinity>
5.5864672661

> <CNN_VS>
1.5968921185

> <CNNaffinity_variance>
0.0587750673

$$$$



 33 37  0  0  0  0  0  0  0  0999 V2000
   -5.4268   -1.1698  -20.4730 C   0  0  0  0  0  0  0  0  0  0  0  0
   -5.3284   -2.6143  -20.0811 C   0  0  0  0  0  0  0  0  0  0  0  0
   -5.7987   -3.6812  -21.0248 C   0  0  0  0  0  0  0  0  0  0  0  0
   -6.3672   -3.3035  -22.3605 C   0  0  0  0  0  0  0  0  0  0  0  0
   -6.4656   -1.8590  -22.7524 C   0  0  0  0  0  0  0  0  0  0  0  0
   -5.9953   -0.7921  -21.8087 C   0  0  0  0  0  0  0  0  0  0  0  0
   -7.0342   -1.4813  -24.0882 C   0  0  0  0  0  0  0  0  0  0  0  0
   -7.5044   -2.5481  -25.0319 C   0  0  0  0  0  0  0  0  0  0  0  0
   -7.4060   -3.9927  -24.6399 C   0  0  0  0  0  0  0  0  0  0  0  0
   -6.8375   -4.3704  -23.3043 O   0  0  0  0  0  0  0  0  0  0  0  0
   -7.5772   -0.9541  -25.3832 N   0  0  0  0  0  0  0  0  0  0  0  0
   -7.4854    0.5427  -25.3493 C   0  0  0  0  0  0  0  0  0  0  0  0
   -7.9174    1.4775  -26.4400 O   0  0  0  0  0  0  0  0  0  0  0  0
   -6.8856    0.9406  -24.0332 N   0  0  0  0  0  0  0  0  0  0  0  0
   -6.6067   -0.3103  -23.2538 C   0  0  0  0  0  0  0  0  0  0  0  0
   -6.1166   -0.0703  -22.1683 O   0  0  0  0  0  0  0  0  0  0  0  0
   -7.9316   -1.4955  -26.1252 H   0  0  0  0  0  0  0  0  0  0  0  0
   -6.6126    2.3432  -23.5768 C   0  0  0  0  0  0  0  0  0  0  0  0
   -5.2293    2.7376  -23.1515 C   0  0  0  0  0  0  0  0  0  0  0  0
   -4.9563    4.1401  -22.6950 N   0  0  0  0  0  0  0  0  0  0  0  0
   -6.0667    5.1482  -22.6639 C   0  0  0  0  0  0  0  0  0  0  0  0
   -7.4500    4.7538  -23.0892 C   0  0  0  0  0  0  0  0  0  0  0  0
   -8.5603    5.7619  -23.0580 C   0  0  0  0  0  0  0  0  0  0  0  0
   -9.9436    5.3673  -23.4834 C   0  0  0  0  0  0  0  0  0  0  0  0
  -10.2165    3.9648  -23.9398 C   0  0  0  0  0  0  0  0  0  0  0  0
   -9.1063    2.9568  -23.9710 C   0  0  0  0  0  0  0  0  0  0  0  0
   -7.7229    3.3513  -23.5456 C   0  0  0  0  0  0  0  0  0  0  0  0
   -4.4863    0.9640  -18.5855 N   0  0  0  0  0  0  0  0  0  0  0  0
   -4.9565   -0.1029  -19.5292 S   0  0  0  0  0  0  0  0  0  0  0  0
   -6.1692   -0.3244  -18.6746 O   0  0  0  0  0  0  0  0  0  0  0  0
   -3.7439    0.1186  -20.3839 O   0  0  0  0  0  0  0  0  0  0  0  0
   -5.0405    1.1963  -17.7613 H   0  0  0  0  0  0  0  0  0  0  0  0
   -3.6123    1.4571  -18.7679 H   0  0  0  0  0  0  0  0  0  0  0  0
 28 29  1  0  0  0
 29 30  2  0  0  0
 29 31  2  0  0  0
 29  1  1  0  0  0
  1  2  2  0  0  0
  2  3  1  0  0  0
  3  4  2  0  0  0
  4  5  1  0  0  0
  5  6  2  0  0  0
  5  7  1  0  0  0
  7  8  1  0  0  0
  8  9  1  0  0  0
  9 10  1  0  0  0
  7 11  1  0  0  0
 11 12  1  0  0  0
 12 13  2  0  0  0
 12 14  1  0  0  0
 14 18  1  0  0  0
 18 19  2  0  0  0
 19 20  1  0  0  0
 20 21  2  0  0  0
 21 22  1  0  0  0
 22 23  2  0  0  0
 23 24  1  0  0  0
 24 25  2  0  0  0
 25 26  1  0  0  0
 26 27  2  0  0  0
 14 15  1  0  0  0
 15 16  2  0  0  0
  6  1  1  0  0  0
 15  7  1  0  0  0
 10  4  1  0  0  0
 27 18  1  0  0  0
 27 22  1  0  0  0
 28 32  1  0  0  0
 28 33  1  0  0  0
 11 17  1  0  0  0
M  END
> <minimizedAffinity>
-7.12647

> <CNNscore>
0.2770015895

> <CNNaffinity>
5.5748677254

> <CNN_VS>
1.5442472696

> <CNNaffinity_variance>
0.0725191981

$$$$
