


 27 30  0  0  0  0  0  0  0  0999 V2000
   -6.1093   -3.6843  -21.7644 C   0  0  0  0  0  0  0  0  0  0  0  0
   -5.3469   -4.3159  -20.6375 O   0  0  0  0  0  0  0  0  0  0  0  0
   -6.4199   -2.2172  -21.7305 N   0  0  0  0  0  0  0  0  0  0  0  0
   -6.9203   -1.8028  -22.4701 H   0  0  0  0  0  0  0  0  0  0  0  0
   -5.1829   -7.4329  -25.2414 C   0  0  0  0  0  0  0  0  0  0  0  0
   -6.0980   -6.3942  -24.6638 N   0  0  0  0  0  0  0  0  0  0  0  0
   -5.6462   -5.5586  -23.5029 C   0  0  0  0  0  0  0  0  0  0  0  0
   -6.5612   -4.5199  -22.9253 C   0  0  0  0  0  0  0  0  0  0  0  0
   -7.9283   -4.3168  -23.5084 C   0  0  0  0  0  0  0  0  0  0  0  0
   -8.8434   -3.2782  -22.9308 C   0  0  0  0  0  0  0  0  0  0  0  0
  -10.2103   -3.0751  -23.5140 C   0  0  0  0  0  0  0  0  0  0  0  0
  -11.1255   -2.0364  -22.9363 Cl  0  0  0  0  0  0  0  0  0  0  0  0
  -10.6622   -3.9107  -24.6748 C   0  0  0  0  0  0  0  0  0  0  0  0
   -9.7471   -4.9494  -25.2525 C   0  0  0  0  0  0  0  0  0  0  0  0
   -8.3802   -5.1525  -24.6693 C   0  0  0  0  0  0  0  0  0  0  0  0
   -7.4650   -6.1912  -25.2470 C   0  0  0  0  0  0  0  0  0  0  0  0
   -7.9169   -7.0268  -26.4078 O   0  0  0  0  0  0  0  0  0  0  0  0
   -5.9680   -1.3816  -20.5697 C   0  0  0  0  0  0  0  0  0  0  0  0
   -6.6190   -1.5465  -19.2284 C   0  0  0  0  0  0  0  0  0  0  0  0
   -6.1671   -0.7109  -18.0676 N   0  0  0  0  0  0  0  0  0  0  0  0
   -5.0642    0.2896  -18.2480 C   0  0  0  0  0  0  0  0  0  0  0  0
   -4.4131    0.4545  -19.5893 C   0  0  0  0  0  0  0  0  0  0  0  0
   -3.3102    1.4550  -19.7697 C   0  0  0  0  0  0  0  0  0  0  0  0
   -2.6592    1.6199  -21.1109 C   0  0  0  0  0  0  0  0  0  0  0  0
   -3.1111    0.7843  -22.2717 C   0  0  0  0  0  0  0  0  0  0  0  0
   -4.2140   -0.2162  -22.0914 C   0  0  0  0  0  0  0  0  0  0  0  0
   -4.8650   -0.3811  -20.7501 C   0  0  0  0  0  0  0  0  0  0  0  0
  5  6  1  0  0  0
  6  7  1  0  0  0
  7  8  1  0  0  0
  8  1  1  0  0  0
  1  2  2  0  0  0
  1  3  1  0  0  0
  3 18  1  0  0  0
 18 19  2  0  0  0
 19 20  1  0  0  0
 20 21  2  0  0  0
 21 22  1  0  0  0
 22 23  2  0  0  0
 23 24  1  0  0  0
 24 25  2  0  0  0
 25 26  1  0  0  0
 26 27  2  0  0  0
  8  9  1  0  0  0
  9 10  2  0  0  0
 10 11  1  0  0  0
 11 12  1  0  0  0
 11 13  2  0  0  0
 13 14  1  0  0  0
 14 15  2  0  0  0
 15 16  1  0  0  0
 16 17  2  0  0  0
 16  6  1  0  0  0
 27 18  1  0  0  0
 15  9  1  0  0  0
 27 22  1  0  0  0
  3  4  1  0  0  0
M  END
> <minimizedAffinity>
-8.56186

> <CNNscore>
0.7415149212

> <CNNaffinity>
5.8313603401

> <CNN_VS>
4.3240408897

> <CNNaffinity_variance>
0.1528659016

$$$$



 27 30  0  0  0  0  0  0  0  0999 V2000
   -6.7905   -2.2498  -22.4760 C   0  0  0  0  0  0  0  0  0  0  0  0
   -7.7522   -1.1335  -22.1944 O   0  0  0  0  0  0  0  0  0  0  0  0
   -5.5840   -2.4380  -21.6049 N   0  0  0  0  0  0  0  0  0  0  0  0
   -4.9529   -3.1706  -21.7897 H   0  0  0  0  0  0  0  0  0  0  0  0
   -8.2859   -3.0223  -27.3920 C   0  0  0  0  0  0  0  0  0  0  0  0
   -7.7832   -3.5641  -26.0867 N   0  0  0  0  0  0  0  0  0  0  0  0
   -7.5382   -2.6361  -24.9340 C   0  0  0  0  0  0  0  0  0  0  0  0
   -7.0355   -3.1778  -23.6287 C   0  0  0  0  0  0  0  0  0  0  0  0
   -6.7777   -4.6476  -23.4761 C   0  0  0  0  0  0  0  0  0  0  0  0
   -6.2750   -5.1894  -22.1708 C   0  0  0  0  0  0  0  0  0  0  0  0
   -6.0173   -6.6591  -22.0183 C   0  0  0  0  0  0  0  0  0  0  0  0
   -5.5146   -7.2009  -20.7129 Cl  0  0  0  0  0  0  0  0  0  0  0  0
   -6.2623   -7.5872  -23.1710 C   0  0  0  0  0  0  0  0  0  0  0  0
   -6.7650   -7.0454  -24.4762 C   0  0  0  0  0  0  0  0  0  0  0  0
   -7.0227   -5.5757  -24.6288 C   0  0  0  0  0  0  0  0  0  0  0  0
   -7.5254   -5.0339  -25.9341 C   0  0  0  0  0  0  0  0  0  0  0  0
   -7.7704   -5.9619  -27.0868 O   0  0  0  0  0  0  0  0  0  0  0  0
   -5.3391   -1.5099  -20.4522 C   0  0  0  0  0  0  0  0  0  0  0  0
   -5.8889   -1.8376  -19.0956 C   0  0  0  0  0  0  0  0  0  0  0  0
   -5.6439   -0.9096  -17.9429 N   0  0  0  0  0  0  0  0  0  0  0  0
   -4.8492    0.3461  -18.1468 C   0  0  0  0  0  0  0  0  0  0  0  0
   -4.2993    0.6738  -19.5034 C   0  0  0  0  0  0  0  0  0  0  0  0
   -3.5046    1.9295  -19.7073 C   0  0  0  0  0  0  0  0  0  0  0  0
   -2.9548    2.2572  -21.0638 C   0  0  0  0  0  0  0  0  0  0  0  0
   -3.1998    1.3291  -22.2165 C   0  0  0  0  0  0  0  0  0  0  0  0
   -3.9945    0.0734  -22.0127 C   0  0  0  0  0  0  0  0  0  0  0  0
   -4.5443   -0.2542  -20.6561 C   0  0  0  0  0  0  0  0  0  0  0  0
  5  6  1  0  0  0
  6  7  1  0  0  0
  7  8  1  0  0  0
  8  1  1  0  0  0
  1  2  2  0  0  0
  1  3  1  0  0  0
  3 18  1  0  0  0
 18 19  2  0  0  0
 19 20  1  0  0  0
 20 21  2  0  0  0
 21 22  1  0  0  0
 22 23  2  0  0  0
 23 24  1  0  0  0
 24 25  2  0  0  0
 25 26  1  0  0  0
 26 27  2  0  0  0
  8  9  1  0  0  0
  9 10  2  0  0  0
 10 11  1  0  0  0
 11 12  1  0  0  0
 11 13  2  0  0  0
 13 14  1  0  0  0
 14 15  2  0  0  0
 15 16  1  0  0  0
 16 17  2  0  0  0
 16  6  1  0  0  0
 27 18  1  0  0  0
 15  9  1  0  0  0
 27 22  1  0  0  0
  3  4  1  0  0  0
M  END
> <minimizedAffinity>
-7.81233

> <CNNscore>
0.6415668726

> <CNNaffinity>
5.6746034622

> <CNN_VS>
3.6406376362

> <CNNaffinity_variance>
0.2805035710

$$$$



 27 30  0  0  0  0  0  0  0  0999 V2000
   -6.2762   -2.9458  -22.4073 C   0  0  0  0  0  0  0  0  0  0  0  0
   -5.6023   -3.8035  -21.3776 O   0  0  0  0  0  0  0  0  0  0  0  0
   -6.5080   -1.4892  -22.1348 N   0  0  0  0  0  0  0  0  0  0  0  0
   -6.9503   -0.9262  -22.8107 H   0  0  0  0  0  0  0  0  0  0  0  0
   -5.1258   -5.2310  -26.9300 C   0  0  0  0  0  0  0  0  0  0  0  0
   -6.1431   -4.6874  -25.9709 N   0  0  0  0  0  0  0  0  0  0  0  0
   -5.7011   -4.0884  -24.6687 C   0  0  0  0  0  0  0  0  0  0  0  0
   -6.7182   -3.5449  -23.7096 C   0  0  0  0  0  0  0  0  0  0  0  0
   -8.1775   -3.6003  -24.0526 C   0  0  0  0  0  0  0  0  0  0  0  0
   -9.1946   -3.0568  -23.0935 C   0  0  0  0  0  0  0  0  0  0  0  0
  -10.6537   -3.1123  -23.4366 C   0  0  0  0  0  0  0  0  0  0  0  0
  -11.6710   -2.5687  -22.4775 Cl  0  0  0  0  0  0  0  0  0  0  0  0
  -11.0957   -3.7113  -24.7389 C   0  0  0  0  0  0  0  0  0  0  0  0
  -10.0786   -4.2549  -25.6980 C   0  0  0  0  0  0  0  0  0  0  0  0
   -8.6195   -4.1994  -25.3549 C   0  0  0  0  0  0  0  0  0  0  0  0
   -7.6022   -4.7429  -26.3140 C   0  0  0  0  0  0  0  0  0  0  0  0
   -8.0442   -5.3420  -27.6162 O   0  0  0  0  0  0  0  0  0  0  0  0
   -6.0660   -0.8901  -20.8326 C   0  0  0  0  0  0  0  0  0  0  0  0
   -6.8515   -1.1516  -19.5818 C   0  0  0  0  0  0  0  0  0  0  0  0
   -6.4095   -0.5526  -18.2796 N   0  0  0  0  0  0  0  0  0  0  0  0
   -5.1820    0.3079  -18.2281 C   0  0  0  0  0  0  0  0  0  0  0  0
   -4.3964    0.5695  -19.4790 C   0  0  0  0  0  0  0  0  0  0  0  0
   -3.1689    1.4300  -19.4276 C   0  0  0  0  0  0  0  0  0  0  0  0
   -2.3834    1.6915  -20.6784 C   0  0  0  0  0  0  0  0  0  0  0  0
   -2.8254    1.0924  -21.9806 C   0  0  0  0  0  0  0  0  0  0  0  0
   -4.0529    0.2319  -22.0320 C   0  0  0  0  0  0  0  0  0  0  0  0
   -4.8385   -0.0296  -20.7812 C   0  0  0  0  0  0  0  0  0  0  0  0
  5  6  1  0  0  0
  6  7  1  0  0  0
  7  8  1  0  0  0
  8  1  1  0  0  0
  1  2  2  0  0  0
  1  3  1  0  0  0
  3 18  1  0  0  0
 18 19  2  0  0  0
 19 20  1  0  0  0
 20 21  2  0  0  0
 21 22  1  0  0  0
 22 23  2  0  0  0
 23 24  1  0  0  0
 24 25  2  0  0  0
 25 26  1  0  0  0
 26 27  2  0  0  0
  8  9  1  0  0  0
  9 10  2  0  0  0
 10 11  1  0  0  0
 11 12  1  0  0  0
 11 13  2  0  0  0
 13 14  1  0  0  0
 14 15  2  0  0  0
 15 16  1  0  0  0
 16 17  2  0  0  0
 16  6  1  0  0  0
 27 18  1  0  0  0
 15  9  1  0  0  0
 27 22  1  0  0  0
  3  4  1  0  0  0
M  END
> <minimizedAffinity>
-7.62852

> <CNNscore>
0.5049632788

> <CNNaffinity>
5.6098370552

> <CNN_VS>
2.8327617645

> <CNNaffinity_variance>
0.1779272705

$$$$



 27 30  0  0  0  0  0  0  0  0999 V2000
   -7.1832   -2.2511  -22.6143 C   0  0  0  0  0  0  0  0  0  0  0  0
   -8.2864   -1.5379  -21.8901 O   0  0  0  0  0  0  0  0  0  0  0  0
   -5.7918   -2.2453  -22.0539 N   0  0  0  0  0  0  0  0  0  0  0  0
   -5.0678   -2.7134  -22.5292 H   0  0  0  0  0  0  0  0  0  0  0  0
   -8.3297   -6.6341  -25.1589 C   0  0  0  0  0  0  0  0  0  0  0  0
   -8.0447   -5.1614  -25.1712 N   0  0  0  0  0  0  0  0  0  0  0  0
   -7.7565   -4.4425  -23.8866 C   0  0  0  0  0  0  0  0  0  0  0  0
   -7.4714   -2.9700  -23.8989 C   0  0  0  0  0  0  0  0  0  0  0  0
   -7.4746   -2.2162  -25.1958 C   0  0  0  0  0  0  0  0  0  0  0  0
   -7.1895   -0.7436  -25.2080 C   0  0  0  0  0  0  0  0  0  0  0  0
   -7.1927    0.0101  -26.5049 C   0  0  0  0  0  0  0  0  0  0  0  0
   -6.9076    1.4828  -26.5172 Cl  0  0  0  0  0  0  0  0  0  0  0  0
   -7.4809   -0.7087  -27.7895 C   0  0  0  0  0  0  0  0  0  0  0  0
   -7.7660   -2.1813  -27.7772 C   0  0  0  0  0  0  0  0  0  0  0  0
   -7.7628   -2.9350  -26.4803 C   0  0  0  0  0  0  0  0  0  0  0  0
   -8.0479   -4.4077  -26.4680 C   0  0  0  0  0  0  0  0  0  0  0  0
   -8.3361   -5.1266  -27.7526 O   0  0  0  0  0  0  0  0  0  0  0  0
   -5.5036   -1.5264  -20.7693 C   0  0  0  0  0  0  0  0  0  0  0  0
   -6.0845   -2.0301  -19.4814 C   0  0  0  0  0  0  0  0  0  0  0  0
   -5.7963   -1.3112  -18.1968 N   0  0  0  0  0  0  0  0  0  0  0  0
   -4.9272   -0.0887  -18.2002 C   0  0  0  0  0  0  0  0  0  0  0  0
   -4.3462    0.4150  -19.4882 C   0  0  0  0  0  0  0  0  0  0  0  0
   -3.4770    1.6375  -19.4915 C   0  0  0  0  0  0  0  0  0  0  0  0
   -2.8961    2.1411  -20.7795 C   0  0  0  0  0  0  0  0  0  0  0  0
   -3.1843    1.4222  -22.0641 C   0  0  0  0  0  0  0  0  0  0  0  0
   -4.0535    0.1997  -22.0607 C   0  0  0  0  0  0  0  0  0  0  0  0
   -4.6344   -0.3039  -20.7727 C   0  0  0  0  0  0  0  0  0  0  0  0
  5  6  1  0  0  0
  6  7  1  0  0  0
  7  8  1  0  0  0
  8  1  1  0  0  0
  1  2  2  0  0  0
  1  3  1  0  0  0
  3 18  1  0  0  0
 18 19  2  0  0  0
 19 20  1  0  0  0
 20 21  2  0  0  0
 21 22  1  0  0  0
 22 23  2  0  0  0
 23 24  1  0  0  0
 24 25  2  0  0  0
 25 26  1  0  0  0
 26 27  2  0  0  0
  8  9  1  0  0  0
  9 10  2  0  0  0
 10 11  1  0  0  0
 11 12  1  0  0  0
 11 13  2  0  0  0
 13 14  1  0  0  0
 14 15  2  0  0  0
 15 16  1  0  0  0
 16 17  2  0  0  0
 16  6  1  0  0  0
 27 18  1  0  0  0
 15  9  1  0  0  0
 27 22  1  0  0  0
  3  4  1  0  0  0
M  END
> <minimizedAffinity>
-6.95917

> <CNNscore>
0.3619905114

> <CNNaffinity>
5.2264780998

> <CNN_VS>
1.8919354677

> <CNNaffinity_variance>
0.0742165595

$$$$



 27 30  0  0  0  0  0  0  0  0999 V2000
  -10.0283    0.4396  -23.4229 C   0  0  0  0  0  0  0  0  0  0  0  0
  -10.9510   -0.1710  -24.4359 O   0  0  0  0  0  0  0  0  0  0  0  0
  -10.2979    1.8186  -22.8981 N   0  0  0  0  0  0  0  0  0  0  0  0
   -9.6923    2.2194  -22.2332 H   0  0  0  0  0  0  0  0  0  0  0  0
   -7.7051   -4.0966  -22.4100 C   0  0  0  0  0  0  0  0  0  0  0  0
   -7.6745   -2.5969  -22.4285 N   0  0  0  0  0  0  0  0  0  0  0  0
   -8.8667   -1.8284  -22.9164 C   0  0  0  0  0  0  0  0  0  0  0  0
   -8.8361   -0.3289  -22.9350 C   0  0  0  0  0  0  0  0  0  0  0  0
   -7.6134    0.4022  -22.4655 C   0  0  0  0  0  0  0  0  0  0  0  0
   -7.5828    1.9018  -22.4840 C   0  0  0  0  0  0  0  0  0  0  0  0
   -6.3601    2.6328  -22.0145 C   0  0  0  0  0  0  0  0  0  0  0  0
   -6.3295    4.1325  -22.0330 Cl  0  0  0  0  0  0  0  0  0  0  0  0
   -5.1679    1.8643  -21.5265 C   0  0  0  0  0  0  0  0  0  0  0  0
   -5.1985    0.3648  -21.5080 C   0  0  0  0  0  0  0  0  0  0  0  0
   -6.4212   -0.3663  -21.9775 C   0  0  0  0  0  0  0  0  0  0  0  0
   -6.4518   -1.8659  -21.9590 C   0  0  0  0  0  0  0  0  0  0  0  0
   -5.2596   -2.6344  -21.4710 O   0  0  0  0  0  0  0  0  0  0  0  0
  -11.4900    2.5871  -23.3860 C   0  0  0  0  0  0  0  0  0  0  0  0
  -12.7943    2.4943  -22.6511 C   0  0  0  0  0  0  0  0  0  0  0  0
  -13.9865    3.2628  -23.1391 N   0  0  0  0  0  0  0  0  0  0  0  0
  -13.8744    4.1241  -24.3620 C   0  0  0  0  0  0  0  0  0  0  0  0
  -12.5700    4.2170  -25.0970 C   0  0  0  0  0  0  0  0  0  0  0  0
  -12.4579    5.0783  -26.3199 C   0  0  0  0  0  0  0  0  0  0  0  0
  -11.1536    5.1711  -27.0548 C   0  0  0  0  0  0  0  0  0  0  0  0
   -9.9614    4.4026  -26.5668 C   0  0  0  0  0  0  0  0  0  0  0  0
  -10.0736    3.5413  -25.3439 C   0  0  0  0  0  0  0  0  0  0  0  0
  -11.3779    3.4485  -24.6090 C   0  0  0  0  0  0  0  0  0  0  0  0
  5  6  1  0  0  0
  6  7  1  0  0  0
  7  8  1  0  0  0
  8  1  1  0  0  0
  1  2  2  0  0  0
  1  3  1  0  0  0
  3 18  1  0  0  0
 18 19  2  0  0  0
 19 20  1  0  0  0
 20 21  2  0  0  0
 21 22  1  0  0  0
 22 23  2  0  0  0
 23 24  1  0  0  0
 24 25  2  0  0  0
 25 26  1  0  0  0
 26 27  2  0  0  0
  8  9  1  0  0  0
  9 10  2  0  0  0
 10 11  1  0  0  0
 11 12  1  0  0  0
 11 13  2  0  0  0
 13 14  1  0  0  0
 14 15  2  0  0  0
 15 16  1  0  0  0
 16 17  2  0  0  0
 16  6  1  0  0  0
 27 18  1  0  0  0
 15  9  1  0  0  0
 27 22  1  0  0  0
  3  4  1  0  0  0
M  END
> <minimizedAffinity>
-6.80790

> <CNNscore>
0.3414557278

> <CNNaffinity>
5.4602460861

> <CNN_VS>
1.8644323349

> <CNNaffinity_variance>
0.1848395914

$$$$



 27 30  0  0  0  0  0  0  0  0999 V2000
   -6.4955   -3.3507  -21.9181 C   0  0  0  0  0  0  0  0  0  0  0  0
   -5.4882   -4.0198  -21.0305 O   0  0  0  0  0  0  0  0  0  0  0  0
   -6.8805   -1.9220  -21.6717 N   0  0  0  0  0  0  0  0  0  0  0  0
   -7.5416   -1.4829  -22.2542 H   0  0  0  0  0  0  0  0  0  0  0  0
  -10.4521   -4.0901  -25.2042 C   0  0  0  0  0  0  0  0  0  0  0  0
   -9.0961   -4.4800  -24.6951 N   0  0  0  0  0  0  0  0  0  0  0  0
   -8.4738   -3.7204  -23.5612 C   0  0  0  0  0  0  0  0  0  0  0  0
   -7.1178   -4.1103  -23.0520 C   0  0  0  0  0  0  0  0  0  0  0  0
   -6.3841   -5.2598  -23.6767 C   0  0  0  0  0  0  0  0  0  0  0  0
   -5.0281   -5.6497  -23.1675 C   0  0  0  0  0  0  0  0  0  0  0  0
   -4.2944   -6.7992  -23.7923 C   0  0  0  0  0  0  0  0  0  0  0  0
   -2.9384   -7.1892  -23.2831 Cl  0  0  0  0  0  0  0  0  0  0  0  0
   -4.9167   -7.5588  -24.9262 C   0  0  0  0  0  0  0  0  0  0  0  0
   -6.2727   -7.1690  -25.4354 C   0  0  0  0  0  0  0  0  0  0  0  0
   -7.0064   -6.0195  -24.8106 C   0  0  0  0  0  0  0  0  0  0  0  0
   -8.3624   -5.6295  -25.3198 C   0  0  0  0  0  0  0  0  0  0  0  0
   -8.9847   -6.3891  -26.4537 O   0  0  0  0  0  0  0  0  0  0  0  0
   -6.2582   -1.1624  -20.5378 C   0  0  0  0  0  0  0  0  0  0  0  0
   -6.8414   -1.2611  -19.1594 C   0  0  0  0  0  0  0  0  0  0  0  0
   -6.2191   -0.5015  -18.0255 N   0  0  0  0  0  0  0  0  0  0  0  0
   -5.0136    0.3568  -18.2700 C   0  0  0  0  0  0  0  0  0  0  0  0
   -4.4302    0.4556  -19.6485 C   0  0  0  0  0  0  0  0  0  0  0  0
   -3.2247    1.3139  -19.8929 C   0  0  0  0  0  0  0  0  0  0  0  0
   -2.6414    1.4127  -21.2713 C   0  0  0  0  0  0  0  0  0  0  0  0
   -3.2637    0.6531  -22.4052 C   0  0  0  0  0  0  0  0  0  0  0  0
   -4.4693   -0.2053  -22.1608 C   0  0  0  0  0  0  0  0  0  0  0  0
   -5.0525   -0.3040  -20.7824 C   0  0  0  0  0  0  0  0  0  0  0  0
  5  6  1  0  0  0
  6  7  1  0  0  0
  7  8  1  0  0  0
  8  1  1  0  0  0
  1  2  2  0  0  0
  1  3  1  0  0  0
  3 18  1  0  0  0
 18 19  2  0  0  0
 19 20  1  0  0  0
 20 21  2  0  0  0
 21 22  1  0  0  0
 22 23  2  0  0  0
 23 24  1  0  0  0
 24 25  2  0  0  0
 25 26  1  0  0  0
 26 27  2  0  0  0
  8  9  1  0  0  0
  9 10  2  0  0  0
 10 11  1  0  0  0
 11 12  1  0  0  0
 11 13  2  0  0  0
 13 14  1  0  0  0
 14 15  2  0  0  0
 15 16  1  0  0  0
 16 17  2  0  0  0
 16  6  1  0  0  0
 27 18  1  0  0  0
 15  9  1  0  0  0
 27 22  1  0  0  0
  3  4  1  0  0  0
M  END
> <minimizedAffinity>
-7.91891

> <CNNscore>
0.3404205739

> <CNNaffinity>
5.4088983536

> <CNN_VS>
1.8413002491

> <CNNaffinity_variance>
0.1235228553

$$$$



 27 30  0  0  0  0  0  0  0  0999 V2000
   -8.4766   -1.9197  -22.8696 C   0  0  0  0  0  0  0  0  0  0  0  0
   -9.0099   -2.7078  -21.7100 O   0  0  0  0  0  0  0  0  0  0  0  0
   -7.2667   -2.4037  -23.6123 N   0  0  0  0  0  0  0  0  0  0  0  0
   -6.9167   -1.8865  -24.3733 H   0  0  0  0  0  0  0  0  0  0  0  0
   -8.1904    2.9749  -24.5903 C   0  0  0  0  0  0  0  0  0  0  0  0
   -9.0103    1.7997  -24.1468 N   0  0  0  0  0  0  0  0  0  0  0  0
   -8.3336    0.5276  -23.7300 C   0  0  0  0  0  0  0  0  0  0  0  0
   -9.1534   -0.6476  -23.2865 C   0  0  0  0  0  0  0  0  0  0  0  0
  -10.6501   -0.5508  -23.2598 C   0  0  0  0  0  0  0  0  0  0  0  0
  -11.4699   -1.7260  -22.8164 C   0  0  0  0  0  0  0  0  0  0  0  0
  -12.9665   -1.6291  -22.7898 C   0  0  0  0  0  0  0  0  0  0  0  0
  -13.7865   -2.8043  -22.3463 Cl  0  0  0  0  0  0  0  0  0  0  0  0
  -13.6433   -0.3570  -23.2066 C   0  0  0  0  0  0  0  0  0  0  0  0
  -12.8235    0.8182  -23.6501 C   0  0  0  0  0  0  0  0  0  0  0  0
  -11.3269    0.7213  -23.6767 C   0  0  0  0  0  0  0  0  0  0  0  0
  -10.5069    1.8966  -24.1202 C   0  0  0  0  0  0  0  0  0  0  0  0
  -11.1837    3.1687  -24.5371 O   0  0  0  0  0  0  0  0  0  0  0  0
   -6.5899   -3.6758  -23.1954 C   0  0  0  0  0  0  0  0  0  0  0  0
   -6.0651   -3.8230  -21.7980 C   0  0  0  0  0  0  0  0  0  0  0  0
   -5.3883   -5.0951  -21.3811 N   0  0  0  0  0  0  0  0  0  0  0  0
   -5.2364   -6.2200  -22.3616 C   0  0  0  0  0  0  0  0  0  0  0  0
   -5.7612   -6.0728  -23.7591 C   0  0  0  0  0  0  0  0  0  0  0  0
   -5.6093   -7.1977  -24.7397 C   0  0  0  0  0  0  0  0  0  0  0  0
   -6.1341   -7.0505  -26.1371 C   0  0  0  0  0  0  0  0  0  0  0  0
   -6.8108   -5.7784  -26.5540 C   0  0  0  0  0  0  0  0  0  0  0  0
   -6.9628   -4.6535  -25.5735 C   0  0  0  0  0  0  0  0  0  0  0  0
   -6.4380   -4.8007  -24.1760 C   0  0  0  0  0  0  0  0  0  0  0  0
  5  6  1  0  0  0
  6  7  1  0  0  0
  7  8  1  0  0  0
  8  1  1  0  0  0
  1  2  2  0  0  0
  1  3  1  0  0  0
  3 18  1  0  0  0
 18 19  2  0  0  0
 19 20  1  0  0  0
 20 21  2  0  0  0
 21 22  1  0  0  0
 22 23  2  0  0  0
 23 24  1  0  0  0
 24 25  2  0  0  0
 25 26  1  0  0  0
 26 27  2  0  0  0
  8  9  1  0  0  0
  9 10  2  0  0  0
 10 11  1  0  0  0
 11 12  1  0  0  0
 11 13  2  0  0  0
 13 14  1  0  0  0
 14 15  2  0  0  0
 15 16  1  0  0  0
 16 17  2  0  0  0
 16  6  1  0  0  0
 27 18  1  0  0  0
 15  9  1  0  0  0
 27 22  1  0  0  0
  3  4  1  0  0  0
M  END
> <minimizedAffinity>
-6.81148

> <CNNscore>
0.3254400492

> <CNNaffinity>
5.5490465164

> <CNN_VS>
1.8058819771

> <CNNaffinity_variance>
0.0769698471

$$$$



 27 30  0  0  0  0  0  0  0  0999 V2000
   -8.6375   -1.3580  -23.2211 C   0  0  0  0  0  0  0  0  0  0  0  0
   -8.7361   -1.9542  -21.8482 O   0  0  0  0  0  0  0  0  0  0  0  0
   -8.3297   -2.2344  -24.3989 N   0  0  0  0  0  0  0  0  0  0  0  0
   -8.2649   -1.8431  -25.3000 H   0  0  0  0  0  0  0  0  0  0  0  0
   -6.6923    3.4185  -23.8546 C   0  0  0  0  0  0  0  0  0  0  0  0
   -7.8741    2.5027  -23.7330 N   0  0  0  0  0  0  0  0  0  0  0  0
   -7.6649    1.0302  -23.5379 C   0  0  0  0  0  0  0  0  0  0  0  0
   -8.8467    0.1144  -23.4162 C   0  0  0  0  0  0  0  0  0  0  0  0
  -10.2376    0.6711  -23.4897 C   0  0  0  0  0  0  0  0  0  0  0  0
  -11.4194   -0.2447  -23.3681 C   0  0  0  0  0  0  0  0  0  0  0  0
  -12.8103    0.3120  -23.4415 C   0  0  0  0  0  0  0  0  0  0  0  0
  -13.9921   -0.6037  -23.3199 Cl  0  0  0  0  0  0  0  0  0  0  0  0
  -13.0194    1.7845  -23.6366 C   0  0  0  0  0  0  0  0  0  0  0  0
  -11.8377    2.7003  -23.7583 C   0  0  0  0  0  0  0  0  0  0  0  0
  -10.4468    2.1436  -23.6848 C   0  0  0  0  0  0  0  0  0  0  0  0
   -9.2650    3.0594  -23.8064 C   0  0  0  0  0  0  0  0  0  0  0  0
   -9.4742    4.5318  -24.0015 O   0  0  0  0  0  0  0  0  0  0  0  0
   -8.1205   -3.7069  -24.2038 C   0  0  0  0  0  0  0  0  0  0  0  0
   -7.4524   -4.2111  -22.9591 C   0  0  0  0  0  0  0  0  0  0  0  0
   -7.2432   -5.6835  -22.7640 N   0  0  0  0  0  0  0  0  0  0  0  0
   -7.7022   -6.6518  -23.8136 C   0  0  0  0  0  0  0  0  0  0  0  0
   -8.3703   -6.1477  -25.0584 C   0  0  0  0  0  0  0  0  0  0  0  0
   -8.8292   -7.1159  -26.1081 C   0  0  0  0  0  0  0  0  0  0  0  0
   -9.4973   -6.6117  -27.3528 C   0  0  0  0  0  0  0  0  0  0  0  0
   -9.7065   -5.1393  -27.5479 C   0  0  0  0  0  0  0  0  0  0  0  0
   -9.2475   -4.1710  -26.4983 C   0  0  0  0  0  0  0  0  0  0  0  0
   -8.5795   -4.6752  -25.2535 C   0  0  0  0  0  0  0  0  0  0  0  0
  5  6  1  0  0  0
  6  7  1  0  0  0
  7  8  1  0  0  0
  8  1  1  0  0  0
  1  2  2  0  0  0
  1  3  1  0  0  0
  3 18  1  0  0  0
 18 19  2  0  0  0
 19 20  1  0  0  0
 20 21  2  0  0  0
 21 22  1  0  0  0
 22 23  2  0  0  0
 23 24  1  0  0  0
 24 25  2  0  0  0
 25 26  1  0  0  0
 26 27  2  0  0  0
  8  9  1  0  0  0
  9 10  2  0  0  0
 10 11  1  0  0  0
 11 12  1  0  0  0
 11 13  2  0  0  0
 13 14  1  0  0  0
 14 15  2  0  0  0
 15 16  1  0  0  0
 16 17  2  0  0  0
 16  6  1  0  0  0
 27 18  1  0  0  0
 15  9  1  0  0  0
 27 22  1  0  0  0
  3  4  1  0  0  0
M  END
> <minimizedAffinity>
-7.00704

> <CNNscore>
0.3166872561

> <CNNaffinity>
5.3982315063

> <CNN_VS>
1.7095510960

> <CNNaffinity_variance>
0.0841255039

$$$$



 27 30  0  0  0  0  0  0  0  0999 V2000
   -9.0835    1.6581  -24.4229 C   0  0  0  0  0  0  0  0  0  0  0  0
   -9.0302    0.2552  -24.9513 O   0  0  0  0  0  0  0  0  0  0  0  0
   -8.5972    1.9561  -23.0356 N   0  0  0  0  0  0  0  0  0  0  0  0
   -8.6322    2.8768  -22.6889 H   0  0  0  0  0  0  0  0  0  0  0  0
   -8.7600    4.6095  -28.6873 C   0  0  0  0  0  0  0  0  0  0  0  0
   -9.4613    4.2387  -27.4142 N   0  0  0  0  0  0  0  0  0  0  0  0
   -8.9218    3.1338  -26.5551 C   0  0  0  0  0  0  0  0  0  0  0  0
   -9.6230    2.7630  -25.2820 C   0  0  0  0  0  0  0  0  0  0  0  0
  -10.8639    3.4972  -24.8680 C   0  0  0  0  0  0  0  0  0  0  0  0
  -11.5651    3.1265  -23.5949 C   0  0  0  0  0  0  0  0  0  0  0  0
  -12.8059    3.8606  -23.1809 C   0  0  0  0  0  0  0  0  0  0  0  0
  -13.5072    3.4899  -21.9078 Cl  0  0  0  0  0  0  0  0  0  0  0  0
  -13.3454    4.9655  -24.0400 C   0  0  0  0  0  0  0  0  0  0  0  0
  -12.6442    5.3363  -25.3131 C   0  0  0  0  0  0  0  0  0  0  0  0
  -11.4034    4.6021  -25.7271 C   0  0  0  0  0  0  0  0  0  0  0  0
  -10.7021    4.9729  -27.0002 C   0  0  0  0  0  0  0  0  0  0  0  0
  -11.2416    6.0778  -27.8593 O   0  0  0  0  0  0  0  0  0  0  0  0
   -8.0577    0.8511  -22.1765 C   0  0  0  0  0  0  0  0  0  0  0  0
   -8.8970   -0.3604  -21.8980 C   0  0  0  0  0  0  0  0  0  0  0  0
   -8.3575   -1.4653  -21.0389 N   0  0  0  0  0  0  0  0  0  0  0  0
   -6.9786   -1.3587  -20.4583 C   0  0  0  0  0  0  0  0  0  0  0  0
   -6.1391   -0.1471  -20.7367 C   0  0  0  0  0  0  0  0  0  0  0  0
   -4.7602   -0.0405  -20.1561 C   0  0  0  0  0  0  0  0  0  0  0  0
   -3.9209    1.1711  -20.4346 C   0  0  0  0  0  0  0  0  0  0  0  0
   -4.4604    2.2760  -21.2937 C   0  0  0  0  0  0  0  0  0  0  0  0
   -5.8393    2.1694  -21.8743 C   0  0  0  0  0  0  0  0  0  0  0  0
   -6.6787    0.9578  -21.5958 C   0  0  0  0  0  0  0  0  0  0  0  0
  5  6  1  0  0  0
  6  7  1  0  0  0
  7  8  1  0  0  0
  8  1  1  0  0  0
  1  2  2  0  0  0
  1  3  1  0  0  0
  3 18  1  0  0  0
 18 19  2  0  0  0
 19 20  1  0  0  0
 20 21  2  0  0  0
 21 22  1  0  0  0
 22 23  2  0  0  0
 23 24  1  0  0  0
 24 25  2  0  0  0
 25 26  1  0  0  0
 26 27  2  0  0  0
  8  9  1  0  0  0
  9 10  2  0  0  0
 10 11  1  0  0  0
 11 12  1  0  0  0
 11 13  2  0  0  0
 13 14  1  0  0  0
 14 15  2  0  0  0
 15 16  1  0  0  0
 16 17  2  0  0  0
 16  6  1  0  0  0
 27 18  1  0  0  0
 15  9  1  0  0  0
 27 22  1  0  0  0
  3  4  1  0  0  0
M  END
> <minimizedAffinity>
-6.88688

> <CNNscore>
0.2800962031

> <CNNaffinity>
4.9374036789

> <CNN_VS>
1.3829480410

> <CNNaffinity_variance>
0.2524648309

$$$$
