


 28 31  0  0  0  0  0  0  0  0999 V2000
    5.4396   -3.9907   25.1781 C   0  0  0  0  0  0  0  0  0  0  0  0
    4.0173   -4.0707   25.6478 C   0  0  0  0  0  0  0  0  0  0  0  0
    3.3468   -5.4054   25.7852 C   0  0  0  0  0  0  0  0  0  0  0  0
    1.9245   -5.4855   26.2549 C   0  0  0  0  0  0  0  0  0  0  0  0
    4.0986   -6.6602   25.4528 C   0  0  0  0  0  0  0  0  0  0  0  0
    5.5209   -6.5802   24.9830 C   0  0  0  0  0  0  0  0  0  0  0  0
    6.1914   -5.2454   24.8457 N   0  0  0  0  0  0  0  0  0  0  0  0
    7.6137   -5.1653   24.3759 C   0  0  0  0  0  0  0  0  0  0  0  0
    8.3655   -6.4201   24.0435 O   0  0  0  0  0  0  0  0  0  0  0  0
    6.8351   -2.0570   26.2093 C   0  0  0  0  0  0  0  0  0  0  0  0
    7.5056   -0.7223   26.0720 C   0  0  0  0  0  0  0  0  0  0  0  0
    7.4510    0.0136   24.7660 C   0  0  0  0  0  0  0  0  0  0  0  0
    6.7260   -0.5853   23.5974 C   0  0  0  0  0  0  0  0  0  0  0  0
    6.0555   -1.9200   23.7348 C   0  0  0  0  0  0  0  0  0  0  0  0
    6.1101   -2.6559   25.0407 C   0  0  0  0  0  0  0  0  0  0  0  0
    5.8468   -2.5394   28.5631 C   0  0  0  0  0  0  0  0  0  0  0  0
    6.8897   -2.7929   27.5153 O   0  0  0  0  0  0  0  0  0  0  0  0
    8.2842   -3.8306   24.2386 C   0  0  0  0  0  0  0  0  0  0  0  0
    9.6150   -3.5896   24.8873 C   0  0  0  0  0  0  0  0  0  0  0  0
    9.9567   -4.2768   26.1760 C   0  0  0  0  0  0  0  0  0  0  0  0
   11.2875   -4.0357   26.8247 N   0  0  0  0  0  0  0  0  0  0  0  0
   12.2767   -3.1074   26.1846 C   0  0  0  0  0  0  0  0  0  0  0  0
   11.9350   -2.4201   24.8958 C   0  0  0  0  0  0  0  0  0  0  0  0
   12.9242   -1.4918   24.2557 C   0  0  0  0  0  0  0  0  0  0  0  0
   12.5825   -0.8045   22.9670 C   0  0  0  0  0  0  0  0  0  0  0  0
   11.2517   -1.0456   22.3183 C   0  0  0  0  0  0  0  0  0  0  0  0
   10.2625   -1.9739   22.9584 C   0  0  0  0  0  0  0  0  0  0  0  0
   10.6042   -2.6612   24.2471 C   0  0  0  0  0  0  0  0  0  0  0  0
 16 17  1  0  0  0
 17 10  1  0  0  0
 10 11  2  0  0  0
 11 12  1  0  0  0
 12 13  2  0  0  0
 13 14  1  0  0  0
 14 15  2  0  0  0
  1 15  1  0  0  0
  1  2  1  0  0  0
  2  3  1  0  0  0
  3  4  1  0  0  0
  3  5  1  0  0  0
  5  6  1  0  0  0
  6  7  1  0  0  0
  7  8  1  0  0  0
  8  9  2  0  0  0
  8 18  1  0  0  0
 18 19  1  0  0  0
 19 20  2  0  0  0
 20 21  1  0  0  0
 21 22  2  0  0  0
 22 23  1  0  0  0
 23 24  2  0  0  0
 24 25  1  0  0  0
 25 26  2  0  0  0
 26 27  1  0  0  0
 27 28  2  0  0  0
 15 10  1  0  0  0
  7  1  1  0  0  0
 28 19  1  0  0  0
 28 23  1  0  0  0
M  END
> <minimizedAffinity>
-6.59770

> <CNNscore>
0.4524719715

> <CNNaffinity>
5.9969110489

> <CNN_VS>
2.7134342194

> <CNNaffinity_variance>
0.1092590690

$$$$



 28 31  0  0  0  0  0  0  0  0999 V2000
    9.7650   -0.8654   23.7571 C   0  0  0  0  0  0  0  0  0  0  0  0
   10.8287   -1.5437   24.5686 C   0  0  0  0  0  0  0  0  0  0  0  0
   12.2263   -0.9989   24.5783 C   0  0  0  0  0  0  0  0  0  0  0  0
   13.2900   -1.6772   25.3897 C   0  0  0  0  0  0  0  0  0  0  0  0
   12.5601    0.2241   23.7765 C   0  0  0  0  0  0  0  0  0  0  0  0
   11.4964    0.9024   22.9650 C   0  0  0  0  0  0  0  0  0  0  0  0
   10.0988    0.3576   22.9554 N   0  0  0  0  0  0  0  0  0  0  0  0
    9.0351    1.0358   22.1440 C   0  0  0  0  0  0  0  0  0  0  0  0
    9.3689    2.2589   21.3422 O   0  0  0  0  0  0  0  0  0  0  0  0
    7.3504   -0.8833   24.7159 C   0  0  0  0  0  0  0  0  0  0  0  0
    5.9529   -1.4280   24.7063 C   0  0  0  0  0  0  0  0  0  0  0  0
    5.5724   -2.4997   23.7281 C   0  0  0  0  0  0  0  0  0  0  0  0
    6.5894   -3.0266   22.7597 C   0  0  0  0  0  0  0  0  0  0  0  0
    7.9870   -2.4819   22.7694 C   0  0  0  0  0  0  0  0  0  0  0  0
    8.3674   -1.4102   23.7475 C   0  0  0  0  0  0  0  0  0  0  0  0
    6.8854    1.4208   25.8228 C   0  0  0  0  0  0  0  0  0  0  0  0
    7.7308    0.1884   25.6941 O   0  0  0  0  0  0  0  0  0  0  0  0
    7.6375    0.4911   22.1343 C   0  0  0  0  0  0  0  0  0  0  0  0
    6.8534    0.4604   20.8559 C   0  0  0  0  0  0  0  0  0  0  0  0
    7.2691   -0.4553   19.7430 C   0  0  0  0  0  0  0  0  0  0  0  0
    6.4850   -0.4861   18.4646 N   0  0  0  0  0  0  0  0  0  0  0  0
    5.2851    0.3988   18.2992 C   0  0  0  0  0  0  0  0  0  0  0  0
    4.8694    1.3145   19.4122 C   0  0  0  0  0  0  0  0  0  0  0  0
    3.6696    2.1994   19.2469 C   0  0  0  0  0  0  0  0  0  0  0  0
    3.2539    3.1150   20.3598 C   0  0  0  0  0  0  0  0  0  0  0  0
    4.0380    3.1458   21.6382 C   0  0  0  0  0  0  0  0  0  0  0  0
    5.2378    2.2609   21.8036 C   0  0  0  0  0  0  0  0  0  0  0  0
    5.6535    1.3453   20.6906 C   0  0  0  0  0  0  0  0  0  0  0  0
 16 17  1  0  0  0
 17 10  1  0  0  0
 10 11  2  0  0  0
 11 12  1  0  0  0
 12 13  2  0  0  0
 13 14  1  0  0  0
 14 15  2  0  0  0
  1 15  1  0  0  0
  1  2  1  0  0  0
  2  3  1  0  0  0
  3  4  1  0  0  0
  3  5  1  0  0  0
  5  6  1  0  0  0
  6  7  1  0  0  0
  7  8  1  0  0  0
  8  9  2  0  0  0
  8 18  1  0  0  0
 18 19  1  0  0  0
 19 20  2  0  0  0
 20 21  1  0  0  0
 21 22  2  0  0  0
 22 23  1  0  0  0
 23 24  2  0  0  0
 24 25  1  0  0  0
 25 26  2  0  0  0
 26 27  1  0  0  0
 27 28  2  0  0  0
 15 10  1  0  0  0
  7  1  1  0  0  0
 28 19  1  0  0  0
 28 23  1  0  0  0
M  END
> <minimizedAffinity>
-7.31946

> <CNNscore>
0.4472485185

> <CNNaffinity>
5.8426289558

> <CNN_VS>
2.6131072044

> <CNNaffinity_variance>
0.1292497814

$$$$



 28 31  0  0  0  0  0  0  0  0999 V2000
    8.5962   -1.4594   24.1245 C   0  0  0  0  0  0  0  0  0  0  0  0
    9.6036   -1.9885   25.1018 C   0  0  0  0  0  0  0  0  0  0  0  0
    9.5964   -3.4416   25.4737 C   0  0  0  0  0  0  0  0  0  0  0  0
   10.6038   -3.9707   26.4510 C   0  0  0  0  0  0  0  0  0  0  0  0
    8.5817   -4.3658   24.8682 C   0  0  0  0  0  0  0  0  0  0  0  0
    7.5743   -3.8367   23.8909 C   0  0  0  0  0  0  0  0  0  0  0  0
    7.5815   -2.3834   23.5191 N   0  0  0  0  0  0  0  0  0  0  0  0
    6.5741   -1.8543   22.5417 C   0  0  0  0  0  0  0  0  0  0  0  0
    5.5594   -2.7785   21.9363 O   0  0  0  0  0  0  0  0  0  0  0  0
    7.8057    0.9776   24.5563 C   0  0  0  0  0  0  0  0  0  0  0  0
    7.8130    2.4307   24.1844 C   0  0  0  0  0  0  0  0  0  0  0  0
    8.6180    2.9001   23.0089 C   0  0  0  0  0  0  0  0  0  0  0  0
    9.4157    1.9163   22.2054 C   0  0  0  0  0  0  0  0  0  0  0  0
    9.4084    0.4632   22.5772 C   0  0  0  0  0  0  0  0  0  0  0  0
    8.6034   -0.0062   23.7527 C   0  0  0  0  0  0  0  0  0  0  0  0
    6.7334    1.4388   26.8773 C   0  0  0  0  0  0  0  0  0  0  0  0
    7.0007    0.5082   25.7317 O   0  0  0  0  0  0  0  0  0  0  0  0
    6.5813   -0.4012   22.1699 C   0  0  0  0  0  0  0  0  0  0  0  0
    6.1755    0.0217   20.7891 C   0  0  0  0  0  0  0  0  0  0  0  0
    7.0515   -0.3062   19.6165 C   0  0  0  0  0  0  0  0  0  0  0  0
    6.6457    0.1167   18.2357 N   0  0  0  0  0  0  0  0  0  0  0  0
    5.3639    0.8674   18.0276 C   0  0  0  0  0  0  0  0  0  0  0  0
    4.4878    1.1953   19.2002 C   0  0  0  0  0  0  0  0  0  0  0  0
    3.2060    1.9460   18.9921 C   0  0  0  0  0  0  0  0  0  0  0  0
    2.3300    2.2738   20.1647 C   0  0  0  0  0  0  0  0  0  0  0  0
    2.7358    1.8509   21.5455 C   0  0  0  0  0  0  0  0  0  0  0  0
    4.0176    1.1002   21.7536 C   0  0  0  0  0  0  0  0  0  0  0  0
    4.8936    0.7724   20.5810 C   0  0  0  0  0  0  0  0  0  0  0  0
 16 17  1  0  0  0
 17 10  1  0  0  0
 10 11  2  0  0  0
 11 12  1  0  0  0
 12 13  2  0  0  0
 13 14  1  0  0  0
 14 15  2  0  0  0
  1 15  1  0  0  0
  1  2  1  0  0  0
  2  3  1  0  0  0
  3  4  1  0  0  0
  3  5  1  0  0  0
  5  6  1  0  0  0
  6  7  1  0  0  0
  7  8  1  0  0  0
  8  9  2  0  0  0
  8 18  1  0  0  0
 18 19  1  0  0  0
 19 20  2  0  0  0
 20 21  1  0  0  0
 21 22  2  0  0  0
 22 23  1  0  0  0
 23 24  2  0  0  0
 24 25  1  0  0  0
 25 26  2  0  0  0
 26 27  1  0  0  0
 27 28  2  0  0  0
 15 10  1  0  0  0
  7  1  1  0  0  0
 28 19  1  0  0  0
 28 23  1  0  0  0
M  END
> <minimizedAffinity>
-7.39363

> <CNNscore>
0.4357040823

> <CNNaffinity>
5.7216253281

> <CNN_VS>
2.4929354191

> <CNNaffinity_variance>
0.1014429107

$$$$



 28 31  0  0  0  0  0  0  0  0999 V2000
    9.6053    1.6411   23.0546 C   0  0  0  0  0  0  0  0  0  0  0  0
    9.5670    3.1326   23.2098 C   0  0  0  0  0  0  0  0  0  0  0  0
   10.7865    3.9502   22.9029 C   0  0  0  0  0  0  0  0  0  0  0  0
   10.7482    5.4416   23.0581 C   0  0  0  0  0  0  0  0  0  0  0  0
   12.0444    3.2763   22.4406 C   0  0  0  0  0  0  0  0  0  0  0  0
   12.0827    1.7848   22.2853 C   0  0  0  0  0  0  0  0  0  0  0  0
   10.8631    0.9673   22.5923 N   0  0  0  0  0  0  0  0  0  0  0  0
   10.9014   -0.5242   22.4371 C   0  0  0  0  0  0  0  0  0  0  0  0
   12.1593   -1.1981   21.9748 O   0  0  0  0  0  0  0  0  0  0  0  0
    7.4392    0.4460   22.2609 C   0  0  0  0  0  0  0  0  0  0  0  0
    6.2197   -0.3715   22.5679 C   0  0  0  0  0  0  0  0  0  0  0  0
    5.9466   -0.8115   23.9757 C   0  0  0  0  0  0  0  0  0  0  0  0
    6.8930   -0.4340   25.0764 C   0  0  0  0  0  0  0  0  0  0  0  0
    8.1126    0.3836   24.7694 C   0  0  0  0  0  0  0  0  0  0  0  0
    8.3857    0.8236   23.3616 C   0  0  0  0  0  0  0  0  0  0  0  0
    6.9713    0.2536   19.7125 C   0  0  0  0  0  0  0  0  0  0  0  0
    7.7123    0.8860   20.8531 O   0  0  0  0  0  0  0  0  0  0  0  0
    9.6819   -1.3418   22.7440 C   0  0  0  0  0  0  0  0  0  0  0  0
    9.7551   -2.4475   23.7550 C   0  0  0  0  0  0  0  0  0  0  0  0
    8.6673   -3.4782   23.8193 C   0  0  0  0  0  0  0  0  0  0  0  0
    8.7406   -4.5839   24.8302 N   0  0  0  0  0  0  0  0  0  0  0  0
    9.9017   -4.6590   25.7769 C   0  0  0  0  0  0  0  0  0  0  0  0
   10.9896   -3.6282   25.7126 C   0  0  0  0  0  0  0  0  0  0  0  0
   12.1507   -3.7032   26.6592 C   0  0  0  0  0  0  0  0  0  0  0  0
   13.2385   -2.6725   26.5949 C   0  0  0  0  0  0  0  0  0  0  0  0
   13.1653   -1.5667   25.5840 C   0  0  0  0  0  0  0  0  0  0  0  0
   12.0042   -1.4917   24.6373 C   0  0  0  0  0  0  0  0  0  0  0  0
   10.9163   -2.5225   24.7016 C   0  0  0  0  0  0  0  0  0  0  0  0
 16 17  1  0  0  0
 17 10  1  0  0  0
 10 11  2  0  0  0
 11 12  1  0  0  0
 12 13  2  0  0  0
 13 14  1  0  0  0
 14 15  2  0  0  0
  1 15  1  0  0  0
  1  2  1  0  0  0
  2  3  1  0  0  0
  3  4  1  0  0  0
  3  5  1  0  0  0
  5  6  1  0  0  0
  6  7  1  0  0  0
  7  8  1  0  0  0
  8  9  2  0  0  0
  8 18  1  0  0  0
 18 19  1  0  0  0
 19 20  2  0  0  0
 20 21  1  0  0  0
 21 22  2  0  0  0
 22 23  1  0  0  0
 23 24  2  0  0  0
 24 25  1  0  0  0
 25 26  2  0  0  0
 26 27  1  0  0  0
 27 28  2  0  0  0
 15 10  1  0  0  0
  7  1  1  0  0  0
 28 19  1  0  0  0
 28 23  1  0  0  0
M  END
> <minimizedAffinity>
-7.62076

> <CNNscore>
0.4199493527

> <CNNaffinity>
6.1584692001

> <CNN_VS>
2.5862450600

> <CNNaffinity_variance>
0.0459061749

$$$$



 28 31  0  0  0  0  0  0  0  0999 V2000
    5.6016   -3.4447   25.3044 C   0  0  0  0  0  0  0  0  0  0  0  0
    4.2181   -3.3374   25.8740 C   0  0  0  0  0  0  0  0  0  0  0  0
    3.4217   -4.5784   26.1487 C   0  0  0  0  0  0  0  0  0  0  0  0
    2.0383   -4.4711   26.7183 C   0  0  0  0  0  0  0  0  0  0  0  0
    4.0088   -5.9269   25.8536 C   0  0  0  0  0  0  0  0  0  0  0  0
    5.3923   -6.0343   25.2840 C   0  0  0  0  0  0  0  0  0  0  0  0
    6.1887   -4.7931   25.0094 N   0  0  0  0  0  0  0  0  0  0  0  0
    7.5722   -4.9004   24.4397 C   0  0  0  0  0  0  0  0  0  0  0  0
    8.1592   -6.2489   24.1447 O   0  0  0  0  0  0  0  0  0  0  0  0
    6.3819   -1.5895   23.6614 C   0  0  0  0  0  0  0  0  0  0  0  0
    7.1782   -0.3484   23.3868 C   0  0  0  0  0  0  0  0  0  0  0  0
    7.9907    0.2787   24.4807 C   0  0  0  0  0  0  0  0  0  0  0  0
    8.0068   -0.3353   25.8492 C   0  0  0  0  0  0  0  0  0  0  0  0
    7.2105   -1.5764   26.1237 C   0  0  0  0  0  0  0  0  0  0  0  0
    6.3980   -2.2035   25.0298 C   0  0  0  0  0  0  0  0  0  0  0  0
    5.5457   -1.5972   21.2015 C   0  0  0  0  0  0  0  0  0  0  0  0
    5.5694   -2.2166   22.5675 O   0  0  0  0  0  0  0  0  0  0  0  0
    8.3685   -3.6593   24.1651 C   0  0  0  0  0  0  0  0  0  0  0  0
    9.6931   -3.4538   24.8384 C   0  0  0  0  0  0  0  0  0  0  0  0
    9.9822   -4.1286   26.1465 C   0  0  0  0  0  0  0  0  0  0  0  0
   11.3068   -3.9231   26.8198 N   0  0  0  0  0  0  0  0  0  0  0  0
   12.3422   -3.0428   26.1850 C   0  0  0  0  0  0  0  0  0  0  0  0
   12.0531   -2.3680   24.8769 C   0  0  0  0  0  0  0  0  0  0  0  0
   13.0885   -1.4878   24.2421 C   0  0  0  0  0  0  0  0  0  0  0  0
   12.7994   -0.8130   22.9340 C   0  0  0  0  0  0  0  0  0  0  0  0
   11.4749   -1.0185   22.2608 C   0  0  0  0  0  0  0  0  0  0  0  0
   10.4394   -1.8988   22.8955 C   0  0  0  0  0  0  0  0  0  0  0  0
   10.7286   -2.5735   24.2036 C   0  0  0  0  0  0  0  0  0  0  0  0
 16 17  1  0  0  0
 17 10  1  0  0  0
 10 11  2  0  0  0
 11 12  1  0  0  0
 12 13  2  0  0  0
 13 14  1  0  0  0
 14 15  2  0  0  0
  1 15  1  0  0  0
  1  2  1  0  0  0
  2  3  1  0  0  0
  3  4  1  0  0  0
  3  5  1  0  0  0
  5  6  1  0  0  0
  6  7  1  0  0  0
  7  8  1  0  0  0
  8  9  2  0  0  0
  8 18  1  0  0  0
 18 19  1  0  0  0
 19 20  2  0  0  0
 20 21  1  0  0  0
 21 22  2  0  0  0
 22 23  1  0  0  0
 23 24  2  0  0  0
 24 25  1  0  0  0
 25 26  2  0  0  0
 26 27  1  0  0  0
 27 28  2  0  0  0
 15 10  1  0  0  0
  7  1  1  0  0  0
 28 19  1  0  0  0
 28 23  1  0  0  0
M  END
> <minimizedAffinity>
-6.98186

> <CNNscore>
0.4141359925

> <CNNaffinity>
5.9475183487

> <CNN_VS>
2.4630813599

> <CNNaffinity_variance>
0.1339988708

$$$$



 28 31  0  0  0  0  0  0  0  0999 V2000
    5.3091   -3.6685   25.6179 C   0  0  0  0  0  0  0  0  0  0  0  0
    3.9270   -4.2503   25.5808 C   0  0  0  0  0  0  0  0  0  0  0  0
    3.7146   -5.6476   25.0785 C   0  0  0  0  0  0  0  0  0  0  0  0
    2.3325   -6.2293   25.0415 C   0  0  0  0  0  0  0  0  0  0  0  0
    4.8844   -6.4633   24.6133 C   0  0  0  0  0  0  0  0  0  0  0  0
    6.2665   -5.8816   24.6504 C   0  0  0  0  0  0  0  0  0  0  0  0
    6.4789   -4.4842   25.1527 N   0  0  0  0  0  0  0  0  0  0  0  0
    7.8610   -3.9025   25.1897 C   0  0  0  0  0  0  0  0  0  0  0  0
    9.0307   -4.7182   24.7245 O   0  0  0  0  0  0  0  0  0  0  0  0
    5.5361   -1.1218   25.1564 C   0  0  0  0  0  0  0  0  0  0  0  0
    5.7484    0.2755   25.6588 C   0  0  0  0  0  0  0  0  0  0  0  0
    5.9462    0.5235   27.1248 C   0  0  0  0  0  0  0  0  0  0  0  0
    5.9316   -0.6258   28.0886 C   0  0  0  0  0  0  0  0  0  0  0  0
    5.7193   -2.0231   27.5863 C   0  0  0  0  0  0  0  0  0  0  0  0
    5.5215   -2.2711   26.1202 C   0  0  0  0  0  0  0  0  0  0  0  0
    4.9694   -0.2356   22.7809 C   0  0  0  0  0  0  0  0  0  0  0  0
    5.3383   -1.3699   23.6903 O   0  0  0  0  0  0  0  0  0  0  0  0
    8.0734   -2.5051   25.6920 C   0  0  0  0  0  0  0  0  0  0  0  0
    9.1994   -1.6761   25.1492 C   0  0  0  0  0  0  0  0  0  0  0  0
    8.9095   -0.5285   24.2278 C   0  0  0  0  0  0  0  0  0  0  0  0
   10.0355    0.3005   23.6850 N   0  0  0  0  0  0  0  0  0  0  0  0
   11.4516   -0.0179   24.0636 C   0  0  0  0  0  0  0  0  0  0  0  0
   11.7416   -1.1655   24.9850 C   0  0  0  0  0  0  0  0  0  0  0  0
   13.1576   -1.4840   25.3636 C   0  0  0  0  0  0  0  0  0  0  0  0
   13.4476   -2.6315   26.2850 C   0  0  0  0  0  0  0  0  0  0  0  0
   12.3215   -3.4606   26.8278 C   0  0  0  0  0  0  0  0  0  0  0  0
   10.9055   -3.1421   26.4493 C   0  0  0  0  0  0  0  0  0  0  0  0
   10.6155   -1.9946   25.5278 C   0  0  0  0  0  0  0  0  0  0  0  0
 16 17  1  0  0  0
 17 10  1  0  0  0
 10 11  2  0  0  0
 11 12  1  0  0  0
 12 13  2  0  0  0
 13 14  1  0  0  0
 14 15  2  0  0  0
  1 15  1  0  0  0
  1  2  1  0  0  0
  2  3  1  0  0  0
  3  4  1  0  0  0
  3  5  1  0  0  0
  5  6  1  0  0  0
  6  7  1  0  0  0
  7  8  1  0  0  0
  8  9  2  0  0  0
  8 18  1  0  0  0
 18 19  1  0  0  0
 19 20  2  0  0  0
 20 21  1  0  0  0
 21 22  2  0  0  0
 22 23  1  0  0  0
 23 24  2  0  0  0
 24 25  1  0  0  0
 25 26  2  0  0  0
 26 27  1  0  0  0
 27 28  2  0  0  0
 15 10  1  0  0  0
  7  1  1  0  0  0
 28 19  1  0  0  0
 28 23  1  0  0  0
M  END
> <minimizedAffinity>
-6.38754

> <CNNscore>
0.4111590683

> <CNNaffinity>
5.9969820976

> <CNN_VS>
2.4657135010

> <CNNaffinity_variance>
0.1912375391

$$$$



 28 31  0  0  0  0  0  0  0  0999 V2000
    6.6436   -1.2946   25.1847 C   0  0  0  0  0  0  0  0  0  0  0  0
    5.6157   -0.8800   26.1955 C   0  0  0  0  0  0  0  0  0  0  0  0
    5.0513   -1.8909   27.1491 C   0  0  0  0  0  0  0  0  0  0  0  0
    4.0234   -1.4764   28.1598 C   0  0  0  0  0  0  0  0  0  0  0  0
    5.5147   -3.3164   27.0920 C   0  0  0  0  0  0  0  0  0  0  0  0
    6.5426   -3.7310   26.0813 C   0  0  0  0  0  0  0  0  0  0  0  0
    7.1071   -2.7200   25.1276 N   0  0  0  0  0  0  0  0  0  0  0  0
    8.1350   -3.1345   24.1169 C   0  0  0  0  0  0  0  0  0  0  0  0
    8.5984   -4.5601   24.0598 O   0  0  0  0  0  0  0  0  0  0  0  0
    6.6052   -0.1206   22.8673 C   0  0  0  0  0  0  0  0  0  0  0  0
    7.1696    0.8904   21.9138 C   0  0  0  0  0  0  0  0  0  0  0  0
    8.3370    1.7383   22.3240 C   0  0  0  0  0  0  0  0  0  0  0  0
    8.9399    1.5753   23.6877 C   0  0  0  0  0  0  0  0  0  0  0  0
    8.3755    0.5644   24.6413 C   0  0  0  0  0  0  0  0  0  0  0  0
    7.2081   -0.2836   24.2311 C   0  0  0  0  0  0  0  0  0  0  0  0
    5.4466   -1.6646   21.1285 C   0  0  0  0  0  0  0  0  0  0  0  0
    5.4378   -0.9685   22.4571 O   0  0  0  0  0  0  0  0  0  0  0  0
    8.6994   -2.1236   23.1633 C   0  0  0  0  0  0  0  0  0  0  0  0
   10.1835   -1.9258   23.0717 C   0  0  0  0  0  0  0  0  0  0  0  0
   10.7970   -1.4325   21.7949 C   0  0  0  0  0  0  0  0  0  0  0  0
   12.2811   -1.2347   21.7033 N   0  0  0  0  0  0  0  0  0  0  0  0
   13.1517   -1.5302   22.8885 C   0  0  0  0  0  0  0  0  0  0  0  0
   12.5382   -2.0236   24.1653 C   0  0  0  0  0  0  0  0  0  0  0  0
   13.4088   -2.3191   25.3505 C   0  0  0  0  0  0  0  0  0  0  0  0
   12.7953   -2.8124   26.6273 C   0  0  0  0  0  0  0  0  0  0  0  0
   11.3112   -3.0102   26.7189 C   0  0  0  0  0  0  0  0  0  0  0  0
   10.4406   -2.7147   25.5337 C   0  0  0  0  0  0  0  0  0  0  0  0
   11.0541   -2.2214   24.2570 C   0  0  0  0  0  0  0  0  0  0  0  0
 16 17  1  0  0  0
 17 10  1  0  0  0
 10 11  2  0  0  0
 11 12  1  0  0  0
 12 13  2  0  0  0
 13 14  1  0  0  0
 14 15  2  0  0  0
  1 15  1  0  0  0
  1  2  1  0  0  0
  2  3  1  0  0  0
  3  4  1  0  0  0
  3  5  1  0  0  0
  5  6  1  0  0  0
  6  7  1  0  0  0
  7  8  1  0  0  0
  8  9  2  0  0  0
  8 18  1  0  0  0
 18 19  1  0  0  0
 19 20  2  0  0  0
 20 21  1  0  0  0
 21 22  2  0  0  0
 22 23  1  0  0  0
 23 24  2  0  0  0
 24 25  1  0  0  0
 25 26  2  0  0  0
 26 27  1  0  0  0
 27 28  2  0  0  0
 15 10  1  0  0  0
  7  1  1  0  0  0
 28 19  1  0  0  0
 28 23  1  0  0  0
M  END
> <minimizedAffinity>
-6.49439

> <CNNscore>
0.3779547215

> <CNNaffinity>
5.9736361504

> <CNN_VS>
2.2577641010

> <CNNaffinity_variance>
0.1195143685

$$$$



 28 31  0  0  0  0  0  0  0  0999 V2000
    6.7794   -1.1173   24.2946 C   0  0  0  0  0  0  0  0  0  0  0  0
    5.5966   -0.8820   25.1866 C   0  0  0  0  0  0  0  0  0  0  0  0
    4.3810   -0.1848   24.6519 C   0  0  0  0  0  0  0  0  0  0  0  0
    3.1982    0.0506   25.5439 C   0  0  0  0  0  0  0  0  0  0  0  0
    4.3480    0.2771   23.2251 C   0  0  0  0  0  0  0  0  0  0  0  0
    5.5308    0.0418   22.3331 C   0  0  0  0  0  0  0  0  0  0  0  0
    6.7465   -0.6555   22.8679 N   0  0  0  0  0  0  0  0  0  0  0  0
    7.9293   -0.8908   21.9759 C   0  0  0  0  0  0  0  0  0  0  0  0
    7.8964   -0.4289   20.5492 O   0  0  0  0  0  0  0  0  0  0  0  0
    8.1474   -3.2965   24.6548 C   0  0  0  0  0  0  0  0  0  0  0  0
    9.3631   -3.9937   25.1896 C   0  0  0  0  0  0  0  0  0  0  0  0
   10.4265   -3.2089   25.8990 C   0  0  0  0  0  0  0  0  0  0  0  0
   10.2742   -1.7270   26.0736 C   0  0  0  0  0  0  0  0  0  0  0  0
    9.0585   -1.0298   25.5389 C   0  0  0  0  0  0  0  0  0  0  0  0
    7.9951   -1.8146   24.8294 C   0  0  0  0  0  0  0  0  0  0  0  0
    6.8608   -5.5240   24.2901 C   0  0  0  0  0  0  0  0  0  0  0  0
    7.0840   -4.0813   23.9454 O   0  0  0  0  0  0  0  0  0  0  0  0
    9.1450   -1.5880   22.5107 C   0  0  0  0  0  0  0  0  0  0  0  0
   10.4727   -0.8902   22.5058 C   0  0  0  0  0  0  0  0  0  0  0  0
   11.7343   -1.6796   22.3179 C   0  0  0  0  0  0  0  0  0  0  0  0
   13.0620   -0.9817   22.3131 N   0  0  0  0  0  0  0  0  0  0  0  0
   13.1283    0.5056   22.4962 C   0  0  0  0  0  0  0  0  0  0  0  0
   11.8667    1.2951   22.6842 C   0  0  0  0  0  0  0  0  0  0  0  0
   11.9330    2.7823   22.8673 C   0  0  0  0  0  0  0  0  0  0  0  0
   10.6715    3.5717   23.0552 C   0  0  0  0  0  0  0  0  0  0  0  0
    9.3437    2.8739   23.0600 C   0  0  0  0  0  0  0  0  0  0  0  0
    9.2774    1.3866   22.8769 C   0  0  0  0  0  0  0  0  0  0  0  0
   10.5390    0.5972   22.6890 C   0  0  0  0  0  0  0  0  0  0  0  0
 16 17  1  0  0  0
 17 10  1  0  0  0
 10 11  2  0  0  0
 11 12  1  0  0  0
 12 13  2  0  0  0
 13 14  1  0  0  0
 14 15  2  0  0  0
  1 15  1  0  0  0
  1  2  1  0  0  0
  2  3  1  0  0  0
  3  4  1  0  0  0
  3  5  1  0  0  0
  5  6  1  0  0  0
  6  7  1  0  0  0
  7  8  1  0  0  0
  8  9  2  0  0  0
  8 18  1  0  0  0
 18 19  1  0  0  0
 19 20  2  0  0  0
 20 21  1  0  0  0
 21 22  2  0  0  0
 22 23  1  0  0  0
 23 24  2  0  0  0
 24 25  1  0  0  0
 25 26  2  0  0  0
 26 27  1  0  0  0
 27 28  2  0  0  0
 15 10  1  0  0  0
  7  1  1  0  0  0
 28 19  1  0  0  0
 28 23  1  0  0  0
M  END
> <minimizedAffinity>
-6.78331

> <CNNscore>
0.3672800362

> <CNNaffinity>
5.9208698273

> <CNN_VS>
2.1746172905

> <CNNaffinity_variance>
0.0661286786

$$$$



 28 31  0  0  0  0  0  0  0  0999 V2000
    7.4042    0.7088   22.6182 C   0  0  0  0  0  0  0  0  0  0  0  0
    6.7227    1.3112   21.4254 C   0  0  0  0  0  0  0  0  0  0  0  0
    5.2644    1.6563   21.4896 C   0  0  0  0  0  0  0  0  0  0  0  0
    4.5830    2.2586   20.2968 C   0  0  0  0  0  0  0  0  0  0  0  0
    4.4874    1.3990   22.7467 C   0  0  0  0  0  0  0  0  0  0  0  0
    5.1688    0.7966   23.9395 C   0  0  0  0  0  0  0  0  0  0  0  0
    6.6272    0.4516   23.8753 N   0  0  0  0  0  0  0  0  0  0  0  0
    7.3087   -0.1508   25.0681 C   0  0  0  0  0  0  0  0  0  0  0  0
    6.5317   -0.4081   26.3252 O   0  0  0  0  0  0  0  0  0  0  0  0
    9.8950    1.4132   22.8415 C   0  0  0  0  0  0  0  0  0  0  0  0
   11.3533    1.0681   22.7772 C   0  0  0  0  0  0  0  0  0  0  0  0
   11.7792   -0.3265   22.4255 C   0  0  0  0  0  0  0  0  0  0  0  0
   10.7468   -1.3759   22.1380 C   0  0  0  0  0  0  0  0  0  0  0  0
    9.2885   -1.0308   22.2023 C   0  0  0  0  0  0  0  0  0  0  0  0
    8.8626    0.3638   22.5540 C   0  0  0  0  0  0  0  0  0  0  0  0
    8.1905    3.0347   23.9440 C   0  0  0  0  0  0  0  0  0  0  0  0
    9.4690    2.8078   23.1932 O   0  0  0  0  0  0  0  0  0  0  0  0
    8.7670   -0.4959   25.0039 C   0  0  0  0  0  0  0  0  0  0  0  0
    9.2176   -1.9014   25.2712 C   0  0  0  0  0  0  0  0  0  0  0  0
    8.2368   -3.0329   25.1838 C   0  0  0  0  0  0  0  0  0  0  0  0
    8.6874   -4.4384   25.4511 N   0  0  0  0  0  0  0  0  0  0  0  0
   10.1188   -4.7125   25.8057 C   0  0  0  0  0  0  0  0  0  0  0  0
   11.0997   -3.5809   25.8932 C   0  0  0  0  0  0  0  0  0  0  0  0
   12.5312   -3.8550   26.2478 C   0  0  0  0  0  0  0  0  0  0  0  0
   13.5120   -2.7235   26.3352 C   0  0  0  0  0  0  0  0  0  0  0  0
   13.0614   -1.3180   26.0679 C   0  0  0  0  0  0  0  0  0  0  0  0
   11.6299   -1.0439   25.7133 C   0  0  0  0  0  0  0  0  0  0  0  0
   10.6491   -2.1754   25.6259 C   0  0  0  0  0  0  0  0  0  0  0  0
 16 17  1  0  0  0
 17 10  1  0  0  0
 10 11  2  0  0  0
 11 12  1  0  0  0
 12 13  2  0  0  0
 13 14  1  0  0  0
 14 15  2  0  0  0
  1 15  1  0  0  0
  1  2  1  0  0  0
  2  3  1  0  0  0
  3  4  1  0  0  0
  3  5  1  0  0  0
  5  6  1  0  0  0
  6  7  1  0  0  0
  7  8  1  0  0  0
  8  9  2  0  0  0
  8 18  1  0  0  0
 18 19  1  0  0  0
 19 20  2  0  0  0
 20 21  1  0  0  0
 21 22  2  0  0  0
 22 23  1  0  0  0
 23 24  2  0  0  0
 24 25  1  0  0  0
 25 26  2  0  0  0
 26 27  1  0  0  0
 27 28  2  0  0  0
 15 10  1  0  0  0
  7  1  1  0  0  0
 28 19  1  0  0  0
 28 23  1  0  0  0
M  END
> <minimizedAffinity>
-6.77924

> <CNNscore>
0.3621306717

> <CNNaffinity>
5.8877654076

> <CNN_VS>
2.1321403980

> <CNNaffinity_variance>
0.1095195562

$$$$
