


 38 44  0  0  0  0  0  0  0  0999 V2000
    6.9828   -0.5961   20.1825 C   0  0  0  0  0  0  0  0  0  0  0  0
    7.8532   -0.0296   21.2650 C   0  0  0  0  0  0  0  0  0  0  0  0
    8.9382   -0.9829   21.6700 C   0  0  0  0  0  0  0  0  0  0  0  0
    9.7493   -0.3302   22.7499 N   0  0  0  0  0  0  0  0  0  0  0  0
    9.1655    1.0264   23.0123 C   0  0  0  0  0  0  0  0  0  0  0  0
    9.6658    2.0223   24.0162 O   0  0  0  0  0  0  0  0  0  0  0  0
    7.9936    1.2122   22.0946 C   0  0  0  0  0  0  0  0  0  0  0  0
    8.2574    2.3846   22.9923 C   0  0  0  0  0  0  0  0  0  0  0  0
    7.3800    3.5989   22.9173 N   0  0  0  0  0  0  0  0  0  0  0  0
    6.2390    3.6409   21.9446 C   0  0  0  0  0  0  0  0  0  0  0  0
    5.3616    4.8552   21.8697 O   0  0  0  0  0  0  0  0  0  0  0  0
    5.9752    2.4684   21.0469 C   0  0  0  0  0  0  0  0  0  0  0  0
    4.8341    2.5104   20.0742 C   0  0  0  0  0  0  0  0  0  0  0  0
    4.5704    1.3380   19.1765 C   0  0  0  0  0  0  0  0  0  0  0  0
    5.4477    0.1237   19.2515 C   0  0  0  0  0  0  0  0  0  0  0  0
    5.1839   -1.0488   18.3537 Cl  0  0  0  0  0  0  0  0  0  0  0  0
    6.5888    0.0817   20.2242 C   0  0  0  0  0  0  0  0  0  0  0  0
    6.8525    1.2541   21.1219 C   0  0  0  0  0  0  0  0  0  0  0  0
   10.9358   -0.9290   23.4453 C   0  0  0  0  0  0  0  0  0  0  0  0
   12.3234   -0.5861   22.9907 C   0  0  0  0  0  0  0  0  0  0  0  0
   13.5100   -1.1848   23.6861 N   0  0  0  0  0  0  0  0  0  0  0  0
   13.3088   -2.1266   24.8362 C   0  0  0  0  0  0  0  0  0  0  0  0
   11.9211   -2.4695   25.2908 C   0  0  0  0  0  0  0  0  0  0  0  0
   11.7199   -3.4113   26.4409 C   0  0  0  0  0  0  0  0  0  0  0  0
   10.3322   -3.7542   26.8955 C   0  0  0  0  0  0  0  0  0  0  0  0
    9.1458   -3.1554   26.2001 C   0  0  0  0  0  0  0  0  0  0  0  0
    9.3469   -2.2137   25.0500 C   0  0  0  0  0  0  0  0  0  0  0  0
   10.7345   -1.8708   24.5954 C   0  0  0  0  0  0  0  0  0  0  0  0
    7.6438    4.7713   23.8151 C   0  0  0  0  0  0  0  0  0  0  0  0
    8.2040    6.0409   23.2456 C   0  0  0  0  0  0  0  0  0  0  0  0
    9.6472    6.1094   22.8425 N   0  0  0  0  0  0  0  0  0  0  0  0
   10.4136    7.3572   22.5177 C   0  0  0  0  0  0  0  0  0  0  0  0
   11.8174    6.9611   22.1679 C   0  0  0  0  0  0  0  0  0  0  0  0
   10.4761    6.4348   22.5848 C   0  0  0  0  0  0  0  0  0  0  0  0
   10.5774    4.9421   22.6935 C   0  0  0  0  0  0  0  0  0  0  0  0
   11.9812    4.5460   22.3437 C   0  0  0  0  0  0  0  0  0  0  0  0
   12.7476    5.7938   22.0189 O   0  0  0  0  0  0  0  0  0  0  0  0
    9.1403    6.9926   22.9011 H   0  0  0  0  0  0  0  0  0  0  0  0
  2  1  1  0  0  0
  2  3  1  0  0  0
  3  4  1  0  0  0
  4 19  1  0  0  0
 19 20  2  0  0  0
 20 21  1  0  0  0
 21 22  2  0  0  0
 22 23  1  0  0  0
 23 24  2  0  0  0
 24 25  1  0  0  0
 25 26  2  0  0  0
 26 27  1  0  0  0
 27 28  2  0  0  0
  4  5  1  0  0  0
  5  6  2  0  0  0
  5  7  1  0  0  0
  7  8  1  0  0  0
  8  9  1  0  0  0
  9 29  1  0  0  0
 29 30  1  0  0  0
 31 30  1  0  0  0
 31 32  1  0  0  0
 33 32  1  0  0  0
 33 34  1  0  0  0
 34 35  1  0  0  0
 35 36  1  0  0  0
 36 37  1  0  0  0
  9 10  1  0  0  0
 10 11  2  0  0  0
 10 12  1  0  0  0
 12 13  2  0  0  0
 13 14  1  0  0  0
 14 15  2  0  0  0
 15 16  1  0  0  0
 15 17  1  0  0  0
 17 18  2  0  0  0
  7  2  1  0  0  0
 35 31  1  0  0  0
 18 12  1  0  0  0
 28 19  1  0  0  0
 18  7  1  0  0  0
 28 23  1  0  0  0
 37 33  1  0  0  0
 31 38  1  0  0  0
M  CHG 1  31   1
M  END
> <minimizedAffinity>
-9.15472

> <CNNscore>
0.4614427686

> <CNNaffinity>
7.1104249954

> <CNN_VS>
3.2810542583

> <CNNaffinity_variance>
0.0461905673

$$$$



 38 44  0  0  0  0  0  0  0  0999 V2000
    7.0083   -3.5788   23.0498 C   0  0  0  0  0  0  0  0  0  0  0  0
    7.2424   -2.2492   22.3959 C   0  0  0  0  0  0  0  0  0  0  0  0
    6.2161   -1.9525   21.3430 C   0  0  0  0  0  0  0  0  0  0  0  0
    6.5334   -0.6111   20.7514 N   0  0  0  0  0  0  0  0  0  0  0  0
    7.7558   -0.0788   21.4388 C   0  0  0  0  0  0  0  0  0  0  0  0
    8.4229    1.2353   21.1590 O   0  0  0  0  0  0  0  0  0  0  0  0
    8.1940   -1.0912   22.4552 C   0  0  0  0  0  0  0  0  0  0  0  0
    9.0599    0.1324   22.4004 C   0  0  0  0  0  0  0  0  0  0  0  0
   10.2421    0.2562   23.3153 N   0  0  0  0  0  0  0  0  0  0  0  0
   10.5584   -0.8436   24.2851 C   0  0  0  0  0  0  0  0  0  0  0  0
   11.7406   -0.7198   25.2000 O   0  0  0  0  0  0  0  0  0  0  0  0
    9.6925   -2.0673   24.3399 C   0  0  0  0  0  0  0  0  0  0  0  0
   10.0088   -3.1670   25.3096 C   0  0  0  0  0  0  0  0  0  0  0  0
    9.1429   -4.3906   25.3644 C   0  0  0  0  0  0  0  0  0  0  0  0
    7.9607   -4.5144   24.4495 C   0  0  0  0  0  0  0  0  0  0  0  0
    7.0949   -5.7381   24.5043 Cl  0  0  0  0  0  0  0  0  0  0  0  0
    7.6444   -3.4147   23.4797 C   0  0  0  0  0  0  0  0  0  0  0  0
    8.5103   -2.1911   23.4249 C   0  0  0  0  0  0  0  0  0  0  0  0
    5.7636    0.0773   19.6636 C   0  0  0  0  0  0  0  0  0  0  0  0
    6.2045   -0.0519   18.2357 C   0  0  0  0  0  0  0  0  0  0  0  0
    5.4346    0.6364   17.1479 N   0  0  0  0  0  0  0  0  0  0  0  0
    4.2238    1.4539   17.4879 C   0  0  0  0  0  0  0  0  0  0  0  0
    3.7828    1.5830   18.9158 C   0  0  0  0  0  0  0  0  0  0  0  0
    2.5719    2.4005   19.2558 C   0  0  0  0  0  0  0  0  0  0  0  0
    2.1310    2.5296   20.6838 C   0  0  0  0  0  0  0  0  0  0  0  0
    2.9009    1.8413   21.7715 C   0  0  0  0  0  0  0  0  0  0  0  0
    4.1118    1.0238   21.4315 C   0  0  0  0  0  0  0  0  0  0  0  0
    4.5527    0.8947   20.0037 C   0  0  0  0  0  0  0  0  0  0  0  0
   11.1080    1.4799   23.2605 C   0  0  0  0  0  0  0  0  0  0  0  0
   10.4833    2.8341   23.1003 C   0  0  0  0  0  0  0  0  0  0  0  0
    9.0659    3.0624   23.5351 N   0  0  0  0  0  0  0  0  0  0  0  0
    8.2820    2.1963   24.4759 C   0  0  0  0  0  0  0  0  0  0  0  0
    6.9152    2.7954   24.6277 C   0  0  0  0  0  0  0  0  0  0  0  0
    8.2445    2.9604   23.9524 C   0  0  0  0  0  0  0  0  0  0  0  0
    8.1837    4.1969   23.1054 C   0  0  0  0  0  0  0  0  0  0  0  0
    6.8170    4.7961   23.2571 C   0  0  0  0  0  0  0  0  0  0  0  0
    6.0330    3.9299   24.1979 O   0  0  0  0  0  0  0  0  0  0  0  0
    9.5403    2.2428   23.9141 H   0  0  0  0  0  0  0  0  0  0  0  0
  2  1  1  0  0  0
  2  3  1  0  0  0
  3  4  1  0  0  0
  4 19  1  0  0  0
 19 20  2  0  0  0
 20 21  1  0  0  0
 21 22  2  0  0  0
 22 23  1  0  0  0
 23 24  2  0  0  0
 24 25  1  0  0  0
 25 26  2  0  0  0
 26 27  1  0  0  0
 27 28  2  0  0  0
  4  5  1  0  0  0
  5  6  2  0  0  0
  5  7  1  0  0  0
  7  8  1  0  0  0
  8  9  1  0  0  0
  9 29  1  0  0  0
 29 30  1  0  0  0
 31 30  1  0  0  0
 31 32  1  0  0  0
 33 32  1  0  0  0
 33 34  1  0  0  0
 34 35  1  0  0  0
 35 36  1  0  0  0
 36 37  1  0  0  0
  9 10  1  0  0  0
 10 11  2  0  0  0
 10 12  1  0  0  0
 12 13  2  0  0  0
 13 14  1  0  0  0
 14 15  2  0  0  0
 15 16  1  0  0  0
 15 17  1  0  0  0
 17 18  2  0  0  0
  7  2  1  0  0  0
 35 31  1  0  0  0
 18 12  1  0  0  0
 28 19  1  0  0  0
 18  7  1  0  0  0
 28 23  1  0  0  0
 37 33  1  0  0  0
 31 38  1  0  0  0
M  CHG 1  31   1
M  END
> <minimizedAffinity>
-8.42051

> <CNNscore>
0.4583977461

> <CNNaffinity>
6.7079505920

> <CNN_VS>
3.0749094486

> <CNNaffinity_variance>
0.0650324151

$$$$



 38 44  0  0  0  0  0  0  0  0999 V2000
   10.9982   -2.5183   24.8426 C   0  0  0  0  0  0  0  0  0  0  0  0
    9.5591   -2.6475   24.4396 C   0  0  0  0  0  0  0  0  0  0  0  0
    8.9246   -3.8814   25.0095 C   0  0  0  0  0  0  0  0  0  0  0  0
    7.4962   -3.9212   24.5532 N   0  0  0  0  0  0  0  0  0  0  0  0
    7.2480   -2.7118   23.7012 C   0  0  0  0  0  0  0  0  0  0  0  0
    5.9523   -2.3527   23.0362 O   0  0  0  0  0  0  0  0  0  0  0  0
    8.5229   -1.9247   23.6310 C   0  0  0  0  0  0  0  0  0  0  0  0
    7.3875   -1.3168   22.8620 C   0  0  0  0  0  0  0  0  0  0  0  0
    7.5906   -0.0324   22.1144 N   0  0  0  0  0  0  0  0  0  0  0  0
    8.9291    0.6443   22.1358 C   0  0  0  0  0  0  0  0  0  0  0  0
    9.1322    1.9288   21.3883 O   0  0  0  0  0  0  0  0  0  0  0  0
   10.0646    0.0365   22.9048 C   0  0  0  0  0  0  0  0  0  0  0  0
   11.4031    0.7131   22.9262 C   0  0  0  0  0  0  0  0  0  0  0  0
   12.5385    0.1053   23.6952 C   0  0  0  0  0  0  0  0  0  0  0  0
   12.3354   -1.1792   24.4427 C   0  0  0  0  0  0  0  0  0  0  0  0
   13.4709   -1.7870   25.2117 Cl  0  0  0  0  0  0  0  0  0  0  0  0
   10.9969   -1.8558   24.4213 C   0  0  0  0  0  0  0  0  0  0  0  0
    9.8615   -1.2480   23.6524 C   0  0  0  0  0  0  0  0  0  0  0  0
    6.4923   -4.9837   24.8898 C   0  0  0  0  0  0  0  0  0  0  0  0
    6.5201   -6.2977   24.1670 C   0  0  0  0  0  0  0  0  0  0  0  0
    5.5162   -7.3602   24.5035 N   0  0  0  0  0  0  0  0  0  0  0  0
    4.4846   -7.1086   25.5629 C   0  0  0  0  0  0  0  0  0  0  0  0
    4.4568   -5.7945   26.2858 C   0  0  0  0  0  0  0  0  0  0  0  0
    3.4250   -5.5430   27.3452 C   0  0  0  0  0  0  0  0  0  0  0  0
    3.3973   -4.2289   28.0680 C   0  0  0  0  0  0  0  0  0  0  0  0
    4.4012   -3.1665   27.7314 C   0  0  0  0  0  0  0  0  0  0  0  0
    5.4329   -3.4181   26.6720 C   0  0  0  0  0  0  0  0  0  0  0  0
    5.4607   -4.7320   25.9492 C   0  0  0  0  0  0  0  0  0  0  0  0
    6.4551    0.5755   21.3454 C   0  0  0  0  0  0  0  0  0  0  0  0
    5.5005    1.5085   22.0296 C   0  0  0  0  0  0  0  0  0  0  0  0
    5.7449    2.9881   21.9971 N   0  0  0  0  0  0  0  0  0  0  0  0
    5.0586    3.9756   21.1006 C   0  0  0  0  0  0  0  0  0  0  0  0
    5.6081    5.3377   21.4048 C   0  0  0  0  0  0  0  0  0  0  0  0
    5.6926    3.8855   21.7708 C   0  0  0  0  0  0  0  0  0  0  0  0
    6.7186    3.7399   22.8554 C   0  0  0  0  0  0  0  0  0  0  0  0
    7.2681    5.1021   23.1596 C   0  0  0  0  0  0  0  0  0  0  0  0
    6.5818    6.0896   22.2631 O   0  0  0  0  0  0  0  0  0  0  0  0
    5.0478    2.6196   21.3500 H   0  0  0  0  0  0  0  0  0  0  0  0
  2  1  1  0  0  0
  2  3  1  0  0  0
  3  4  1  0  0  0
  4 19  1  0  0  0
 19 20  2  0  0  0
 20 21  1  0  0  0
 21 22  2  0  0  0
 22 23  1  0  0  0
 23 24  2  0  0  0
 24 25  1  0  0  0
 25 26  2  0  0  0
 26 27  1  0  0  0
 27 28  2  0  0  0
  4  5  1  0  0  0
  5  6  2  0  0  0
  5  7  1  0  0  0
  7  8  1  0  0  0
  8  9  1  0  0  0
  9 29  1  0  0  0
 29 30  1  0  0  0
 31 30  1  0  0  0
 31 32  1  0  0  0
 33 32  1  0  0  0
 33 34  1  0  0  0
 34 35  1  0  0  0
 35 36  1  0  0  0
 36 37  1  0  0  0
  9 10  1  0  0  0
 10 11  2  0  0  0
 10 12  1  0  0  0
 12 13  2  0  0  0
 13 14  1  0  0  0
 14 15  2  0  0  0
 15 16  1  0  0  0
 15 17  1  0  0  0
 17 18  2  0  0  0
  7  2  1  0  0  0
 35 31  1  0  0  0
 18 12  1  0  0  0
 28 19  1  0  0  0
 18  7  1  0  0  0
 28 23  1  0  0  0
 37 33  1  0  0  0
 31 38  1  0  0  0
M  CHG 1  31   1
M  END
> <minimizedAffinity>
-8.16463

> <CNNscore>
0.4434900880

> <CNNaffinity>
6.7604703903

> <CNN_VS>
2.9982016087

> <CNNaffinity_variance>
0.1311837286

$$$$



 38 44  0  0  0  0  0  0  0  0999 V2000
    7.4638   -3.2960   23.2607 C   0  0  0  0  0  0  0  0  0  0  0  0
    7.6002   -1.9565   22.5996 C   0  0  0  0  0  0  0  0  0  0  0  0
    6.5005   -1.7028   21.6116 C   0  0  0  0  0  0  0  0  0  0  0  0
    6.7232   -0.3479   21.0078 N   0  0  0  0  0  0  0  0  0  0  0  0
    7.9606    0.2359   21.6228 C   0  0  0  0  0  0  0  0  0  0  0  0
    8.5521    1.5781   21.3090 O   0  0  0  0  0  0  0  0  0  0  0  0
    8.5026   -0.7583   22.6065 C   0  0  0  0  0  0  0  0  0  0  0  0
    9.3099    0.5019   22.5051 C   0  0  0  0  0  0  0  0  0  0  0  0
   10.5386    0.6754   23.3478 N   0  0  0  0  0  0  0  0  0  0  0  0
   10.9600   -0.4112   24.2920 C   0  0  0  0  0  0  0  0  0  0  0  0
   12.1887   -0.2376   25.1347 O   0  0  0  0  0  0  0  0  0  0  0  0
   10.1528   -1.6714   24.3935 C   0  0  0  0  0  0  0  0  0  0  0  0
   10.5743   -2.7580   25.3377 C   0  0  0  0  0  0  0  0  0  0  0  0
    9.7671   -4.0182   25.4392 C   0  0  0  0  0  0  0  0  0  0  0  0
    8.5384   -4.1918   24.5965 C   0  0  0  0  0  0  0  0  0  0  0  0
    7.7312   -5.4520   24.6980 Cl  0  0  0  0  0  0  0  0  0  0  0  0
    8.1169   -3.1051   23.6523 C   0  0  0  0  0  0  0  0  0  0  0  0
    8.9241   -1.8450   23.5508 C   0  0  0  0  0  0  0  0  0  0  0  0
    5.8601    0.3082   19.9712 C   0  0  0  0  0  0  0  0  0  0  0  0
    6.2481    0.2461   18.5237 C   0  0  0  0  0  0  0  0  0  0  0  0
    5.3850    0.9021   17.4870 N   0  0  0  0  0  0  0  0  0  0  0  0
    4.1338    1.6202   17.8980 C   0  0  0  0  0  0  0  0  0  0  0  0
    3.7458    1.6823   19.3457 C   0  0  0  0  0  0  0  0  0  0  0  0
    2.4946    2.4005   19.7566 C   0  0  0  0  0  0  0  0  0  0  0  0
    2.1066    2.4625   21.2043 C   0  0  0  0  0  0  0  0  0  0  0  0
    2.9698    1.8064   22.2408 C   0  0  0  0  0  0  0  0  0  0  0  0
    4.2209    1.0883   21.8298 C   0  0  0  0  0  0  0  0  0  0  0  0
    4.6089    1.0263   20.3823 C   0  0  0  0  0  0  0  0  0  0  0  0
   11.3458    1.9357   23.2463 C   0  0  0  0  0  0  0  0  0  0  0  0
   11.1559    2.8558   22.0770 C   0  0  0  0  0  0  0  0  0  0  0  0
   11.0092    4.3318   22.3003 N   0  0  0  0  0  0  0  0  0  0  0  0
   12.0280    5.3800   21.9634 C   0  0  0  0  0  0  0  0  0  0  0  0
   11.4665    6.7148   22.3545 C   0  0  0  0  0  0  0  0  0  0  0  0
   11.1839    5.2420   22.3210 C   0  0  0  0  0  0  0  0  0  0  0  0
    9.8181    5.0188   22.8996 C   0  0  0  0  0  0  0  0  0  0  0  0
    9.2566    6.3537   23.2908 C   0  0  0  0  0  0  0  0  0  0  0  0
   10.2754    7.4018   22.9539 O   0  0  0  0  0  0  0  0  0  0  0  0
   11.8820    4.0114   21.8808 H   0  0  0  0  0  0  0  0  0  0  0  0
  2  1  1  0  0  0
  2  3  1  0  0  0
  3  4  1  0  0  0
  4 19  1  0  0  0
 19 20  2  0  0  0
 20 21  1  0  0  0
 21 22  2  0  0  0
 22 23  1  0  0  0
 23 24  2  0  0  0
 24 25  1  0  0  0
 25 26  2  0  0  0
 26 27  1  0  0  0
 27 28  2  0  0  0
  4  5  1  0  0  0
  5  6  2  0  0  0
  5  7  1  0  0  0
  7  8  1  0  0  0
  8  9  1  0  0  0
  9 29  1  0  0  0
 29 30  1  0  0  0
 31 30  1  0  0  0
 31 32  1  0  0  0
 33 32  1  0  0  0
 33 34  1  0  0  0
 34 35  1  0  0  0
 35 36  1  0  0  0
 36 37  1  0  0  0
  9 10  1  0  0  0
 10 11  2  0  0  0
 10 12  1  0  0  0
 12 13  2  0  0  0
 13 14  1  0  0  0
 14 15  2  0  0  0
 15 16  1  0  0  0
 15 17  1  0  0  0
 17 18  2  0  0  0
  7  2  1  0  0  0
 35 31  1  0  0  0
 18 12  1  0  0  0
 28 19  1  0  0  0
 18  7  1  0  0  0
 28 23  1  0  0  0
 37 33  1  0  0  0
 31 38  1  0  0  0
M  CHG 1  31   1
M  END
> <minimizedAffinity>
-9.50510

> <CNNscore>
0.3926321864

> <CNNaffinity>
6.8045578003

> <CNN_VS>
2.6716883183

> <CNNaffinity_variance>
0.0865683332

$$$$



 38 44  0  0  0  0  0  0  0  0999 V2000
   10.5102   -0.2839   22.7612 C   0  0  0  0  0  0  0  0  0  0  0  0
    9.0410   -0.5050   22.5546 C   0  0  0  0  0  0  0  0  0  0  0  0
    8.5589    0.0915   21.2655 C   0  0  0  0  0  0  0  0  0  0  0  0
    7.0882   -0.1802   21.1504 N   0  0  0  0  0  0  0  0  0  0  0  0
    6.6614   -0.9446   22.3684 C   0  0  0  0  0  0  0  0  0  0  0  0
    5.2716   -1.4241   22.6663 O   0  0  0  0  0  0  0  0  0  0  0  0
    7.8683   -1.1454   23.2363 C   0  0  0  0  0  0  0  0  0  0  0  0
    6.6092   -1.7384   23.7957 C   0  0  0  0  0  0  0  0  0  0  0  0
    6.6383   -2.4538   25.1137 N   0  0  0  0  0  0  0  0  0  0  0  0
    7.9264   -2.5763   25.8724 C   0  0  0  0  0  0  0  0  0  0  0  0
    7.9555   -3.2917   27.1904 O   0  0  0  0  0  0  0  0  0  0  0  0
    9.1856   -1.9833   25.3130 C   0  0  0  0  0  0  0  0  0  0  0  0
   10.4738   -2.1057   26.0716 C   0  0  0  0  0  0  0  0  0  0  0  0
   11.7329   -1.5127   25.5122 C   0  0  0  0  0  0  0  0  0  0  0  0
   11.7038   -0.7972   24.1942 C   0  0  0  0  0  0  0  0  0  0  0  0
   12.9630   -0.2042   23.6348 Cl  0  0  0  0  0  0  0  0  0  0  0  0
   10.4156   -0.6748   23.4355 C   0  0  0  0  0  0  0  0  0  0  0  0
    9.1565   -1.2678   23.9949 C   0  0  0  0  0  0  0  0  0  0  0  0
    6.2002    0.2389   20.0165 C   0  0  0  0  0  0  0  0  0  0  0  0
    6.3464   -0.4076   18.6710 C   0  0  0  0  0  0  0  0  0  0  0  0
    5.4585    0.0116   17.5370 N   0  0  0  0  0  0  0  0  0  0  0  0
    4.4242    1.0771   17.7487 C   0  0  0  0  0  0  0  0  0  0  0  0
    4.2779    1.7236   19.0944 C   0  0  0  0  0  0  0  0  0  0  0  0
    3.2436    2.7892   19.3061 C   0  0  0  0  0  0  0  0  0  0  0  0
    3.0974    3.4356   20.6517 C   0  0  0  0  0  0  0  0  0  0  0  0
    3.9854    3.0165   21.7856 C   0  0  0  0  0  0  0  0  0  0  0  0
    5.0197    1.9509   21.5739 C   0  0  0  0  0  0  0  0  0  0  0  0
    5.1659    1.3045   20.2283 C   0  0  0  0  0  0  0  0  0  0  0  0
    5.3791   -3.0469   25.6731 C   0  0  0  0  0  0  0  0  0  0  0  0
    5.1017   -4.5116   25.5071 C   0  0  0  0  0  0  0  0  0  0  0  0
    5.6800   -5.2570   24.3410 N   0  0  0  0  0  0  0  0  0  0  0  0
    6.7724   -6.2829   24.4045 C   0  0  0  0  0  0  0  0  0  0  0  0
    7.0350   -6.7673   23.0094 C   0  0  0  0  0  0  0  0  0  0  0  0
    6.1976   -5.8339   23.8324 C   0  0  0  0  0  0  0  0  0  0  0  0
    5.2675   -5.1072   22.9066 C   0  0  0  0  0  0  0  0  0  0  0  0
    5.5302   -5.5916   21.5115 C   0  0  0  0  0  0  0  0  0  0  0  0
    6.6225   -6.6176   21.5750 O   0  0  0  0  0  0  0  0  0  0  0  0
    6.0650   -5.4671   25.2619 H   0  0  0  0  0  0  0  0  0  0  0  0
  2  1  1  0  0  0
  2  3  1  0  0  0
  3  4  1  0  0  0
  4 19  1  0  0  0
 19 20  2  0  0  0
 20 21  1  0  0  0
 21 22  2  0  0  0
 22 23  1  0  0  0
 23 24  2  0  0  0
 24 25  1  0  0  0
 25 26  2  0  0  0
 26 27  1  0  0  0
 27 28  2  0  0  0
  4  5  1  0  0  0
  5  6  2  0  0  0
  5  7  1  0  0  0
  7  8  1  0  0  0
  8  9  1  0  0  0
  9 29  1  0  0  0
 29 30  1  0  0  0
 31 30  1  0  0  0
 31 32  1  0  0  0
 33 32  1  0  0  0
 33 34  1  0  0  0
 34 35  1  0  0  0
 35 36  1  0  0  0
 36 37  1  0  0  0
  9 10  1  0  0  0
 10 11  2  0  0  0
 10 12  1  0  0  0
 12 13  2  0  0  0
 13 14  1  0  0  0
 14 15  2  0  0  0
 15 16  1  0  0  0
 15 17  1  0  0  0
 17 18  2  0  0  0
  7  2  1  0  0  0
 35 31  1  0  0  0
 18 12  1  0  0  0
 28 19  1  0  0  0
 18  7  1  0  0  0
 28 23  1  0  0  0
 37 33  1  0  0  0
 31 38  1  0  0  0
M  CHG 1  31   1
M  END
> <minimizedAffinity>
-9.58447

> <CNNscore>
0.3877934217

> <CNNaffinity>
6.7388143539

> <CNN_VS>
2.6132678986

> <CNNaffinity_variance>
0.1393860877

$$$$



 38 44  0  0  0  0  0  0  0  0999 V2000
   10.7709   -2.9839   26.1051 C   0  0  0  0  0  0  0  0  0  0  0  0
    9.3431   -2.6100   25.8368 C   0  0  0  0  0  0  0  0  0  0  0  0
    8.3818   -3.5370   26.5199 C   0  0  0  0  0  0  0  0  0  0  0  0
    6.9896   -3.0838   26.1933 N   0  0  0  0  0  0  0  0  0  0  0  0
    7.0907   -1.8768   25.3085 C   0  0  0  0  0  0  0  0  0  0  0  0
    5.9392   -1.0992   24.7432 O   0  0  0  0  0  0  0  0  0  0  0  0
    8.5452   -1.5840   25.0882 C   0  0  0  0  0  0  0  0  0  0  0  0
    7.6189   -0.6306   24.3933 C   0  0  0  0  0  0  0  0  0  0  0  0
    8.1774    0.4913   23.5690 N   0  0  0  0  0  0  0  0  0  0  0  0
    9.6623    0.6598   23.4396 C   0  0  0  0  0  0  0  0  0  0  0  0
   10.2208    1.7817   22.6154 O   0  0  0  0  0  0  0  0  0  0  0  0
   10.5887   -0.2936   24.1346 C   0  0  0  0  0  0  0  0  0  0  0  0
   12.0735   -0.1251   24.0052 C   0  0  0  0  0  0  0  0  0  0  0  0
   12.9998   -1.0785   24.7001 C   0  0  0  0  0  0  0  0  0  0  0  0
   12.4413   -2.2004   25.5244 C   0  0  0  0  0  0  0  0  0  0  0  0
   13.3677   -3.1538   26.2193 Cl  0  0  0  0  0  0  0  0  0  0  0  0
   10.9564   -2.3689   25.6538 C   0  0  0  0  0  0  0  0  0  0  0  0
   10.0301   -1.4155   24.9588 C   0  0  0  0  0  0  0  0  0  0  0  0
    5.7195   -3.7251   26.6682 C   0  0  0  0  0  0  0  0  0  0  0  0
    4.9383   -4.6143   25.7470 C   0  0  0  0  0  0  0  0  0  0  0  0
    3.6681   -5.2555   26.2218 N   0  0  0  0  0  0  0  0  0  0  0  0
    3.1792   -5.0075   27.6181 C   0  0  0  0  0  0  0  0  0  0  0  0
    3.9605   -4.1182   28.5394 C   0  0  0  0  0  0  0  0  0  0  0  0
    3.4716   -3.8702   29.9357 C   0  0  0  0  0  0  0  0  0  0  0  0
    4.2529   -2.9809   30.8569 C   0  0  0  0  0  0  0  0  0  0  0  0
    5.5230   -2.3397   30.3820 C   0  0  0  0  0  0  0  0  0  0  0  0
    6.0119   -2.5877   28.9858 C   0  0  0  0  0  0  0  0  0  0  0  0
    5.2307   -3.4770   28.0645 C   0  0  0  0  0  0  0  0  0  0  0  0
    7.2510    1.4447   22.8741 C   0  0  0  0  0  0  0  0  0  0  0  0
    6.0078    0.9323   22.2094 C   0  0  0  0  0  0  0  0  0  0  0  0
    6.0036    0.6605   20.7343 N   0  0  0  0  0  0  0  0  0  0  0  0
    7.0435   -0.1108   19.9769 C   0  0  0  0  0  0  0  0  0  0  0  0
    6.6414   -0.1357   18.5321 C   0  0  0  0  0  0  0  0  0  0  0  0
    6.2472    0.3563   19.8931 C   0  0  0  0  0  0  0  0  0  0  0  0
    4.9587    1.1122   19.7575 C   0  0  0  0  0  0  0  0  0  0  0  0
    4.5565    1.0873   18.3126 C   0  0  0  0  0  0  0  0  0  0  0  0
    5.5965    0.3160   17.5553 O   0  0  0  0  0  0  0  0  0  0  0  0
    6.7856    0.2864   21.2719 H   0  0  0  0  0  0  0  0  0  0  0  0
  2  1  1  0  0  0
  2  3  1  0  0  0
  3  4  1  0  0  0
  4 19  1  0  0  0
 19 20  2  0  0  0
 20 21  1  0  0  0
 21 22  2  0  0  0
 22 23  1  0  0  0
 23 24  2  0  0  0
 24 25  1  0  0  0
 25 26  2  0  0  0
 26 27  1  0  0  0
 27 28  2  0  0  0
  4  5  1  0  0  0
  5  6  2  0  0  0
  5  7  1  0  0  0
  7  8  1  0  0  0
  8  9  1  0  0  0
  9 29  1  0  0  0
 29 30  1  0  0  0
 31 30  1  0  0  0
 31 32  1  0  0  0
 33 32  1  0  0  0
 33 34  1  0  0  0
 34 35  1  0  0  0
 35 36  1  0  0  0
 36 37  1  0  0  0
  9 10  1  0  0  0
 10 11  2  0  0  0
 10 12  1  0  0  0
 12 13  2  0  0  0
 13 14  1  0  0  0
 14 15  2  0  0  0
 15 16  1  0  0  0
 15 17  1  0  0  0
 17 18  2  0  0  0
  7  2  1  0  0  0
 35 31  1  0  0  0
 18 12  1  0  0  0
 28 19  1  0  0  0
 18  7  1  0  0  0
 28 23  1  0  0  0
 37 33  1  0  0  0
 31 38  1  0  0  0
M  CHG 1  31   1
M  END
> <minimizedAffinity>
-9.25365

> <CNNscore>
0.3857136965

> <CNNaffinity>
6.6074218750

> <CNN_VS>
2.5485730171

> <CNNaffinity_variance>
0.0572679825

$$$$



 38 44  0  0  0  0  0  0  0  0999 V2000
   10.6412   -1.3008   22.5633 C   0  0  0  0  0  0  0  0  0  0  0  0
    9.1461   -1.1946   22.5032 C   0  0  0  0  0  0  0  0  0  0  0  0
    8.6767   -0.5995   21.2088 C   0  0  0  0  0  0  0  0  0  0  0  0
    7.1785   -0.5353   21.2446 N   0  0  0  0  0  0  0  0  0  0  0  0
    6.7220   -1.0907   22.5611 C   0  0  0  0  0  0  0  0  0  0  0  0
    5.2993   -1.2165   23.0193 O   0  0  0  0  0  0  0  0  0  0  0  0
    7.9381   -1.4981   23.3390 C   0  0  0  0  0  0  0  0  0  0  0  0
    6.6441   -1.7450   24.0563 C   0  0  0  0  0  0  0  0  0  0  0  0
    6.6510   -2.3498   25.4290 N   0  0  0  0  0  0  0  0  0  0  0  0
    7.9519   -2.7078   26.0843 C   0  0  0  0  0  0  0  0  0  0  0  0
    7.9587   -3.3127   27.4569 O   0  0  0  0  0  0  0  0  0  0  0  0
    9.2460   -2.4610   25.3670 C   0  0  0  0  0  0  0  0  0  0  0  0
   10.5468   -2.8191   26.0223 C   0  0  0  0  0  0  0  0  0  0  0  0
   11.8408   -2.5722   25.3050 C   0  0  0  0  0  0  0  0  0  0  0  0
   11.8340   -1.9674   23.9324 C   0  0  0  0  0  0  0  0  0  0  0  0
   13.1281   -1.7206   23.2151 Cl  0  0  0  0  0  0  0  0  0  0  0  0
   10.5331   -1.6093   23.2770 C   0  0  0  0  0  0  0  0  0  0  0  0
    9.2391   -1.8562   23.9943 C   0  0  0  0  0  0  0  0  0  0  0  0
    6.2923   -0.0082   20.1552 C   0  0  0  0  0  0  0  0  0  0  0  0
    6.3007   -0.6559   18.8024 C   0  0  0  0  0  0  0  0  0  0  0  0
    5.4145   -0.1288   17.7129 N   0  0  0  0  0  0  0  0  0  0  0  0
    4.5199    1.0460   17.9765 C   0  0  0  0  0  0  0  0  0  0  0  0
    4.5114    1.6937   19.3294 C   0  0  0  0  0  0  0  0  0  0  0  0
    3.6167    2.8686   19.5929 C   0  0  0  0  0  0  0  0  0  0  0  0
    3.6083    3.5162   20.9458 C   0  0  0  0  0  0  0  0  0  0  0  0
    4.4945    2.9891   22.0352 C   0  0  0  0  0  0  0  0  0  0  0  0
    5.3892    1.8143   21.7717 C   0  0  0  0  0  0  0  0  0  0  0  0
    5.3976    1.1666   20.4188 C   0  0  0  0  0  0  0  0  0  0  0  0
    5.3569   -2.5966   26.1463 C   0  0  0  0  0  0  0  0  0  0  0  0
    5.0824   -1.9151   27.4540 C   0  0  0  0  0  0  0  0  0  0  0  0
    5.5318   -0.5007   27.6713 N   0  0  0  0  0  0  0  0  0  0  0  0
    5.5400    0.2304   28.9811 C   0  0  0  0  0  0  0  0  0  0  0  0
    6.0652    1.6140   28.7364 C   0  0  0  0  0  0  0  0  0  0  0  0
    5.7355    0.3071   28.0782 C   0  0  0  0  0  0  0  0  0  0  0  0
    6.0519    0.4311   26.6171 C   0  0  0  0  0  0  0  0  0  0  0  0
    6.5770    1.8147   26.3724 C   0  0  0  0  0  0  0  0  0  0  0  0
    6.5853    2.5458   27.6822 O   0  0  0  0  0  0  0  0  0  0  0  0
    5.2014   -1.0125   28.4894 H   0  0  0  0  0  0  0  0  0  0  0  0
  2  1  1  0  0  0
  2  3  1  0  0  0
  3  4  1  0  0  0
  4 19  1  0  0  0
 19 20  2  0  0  0
 20 21  1  0  0  0
 21 22  2  0  0  0
 22 23  1  0  0  0
 23 24  2  0  0  0
 24 25  1  0  0  0
 25 26  2  0  0  0
 26 27  1  0  0  0
 27 28  2  0  0  0
  4  5  1  0  0  0
  5  6  2  0  0  0
  5  7  1  0  0  0
  7  8  1  0  0  0
  8  9  1  0  0  0
  9 29  1  0  0  0
 29 30  1  0  0  0
 31 30  1  0  0  0
 31 32  1  0  0  0
 33 32  1  0  0  0
 33 34  1  0  0  0
 34 35  1  0  0  0
 35 36  1  0  0  0
 36 37  1  0  0  0
  9 10  1  0  0  0
 10 11  2  0  0  0
 10 12  1  0  0  0
 12 13  2  0  0  0
 13 14  1  0  0  0
 14 15  2  0  0  0
 15 16  1  0  0  0
 15 17  1  0  0  0
 17 18  2  0  0  0
  7  2  1  0  0  0
 35 31  1  0  0  0
 18 12  1  0  0  0
 28 19  1  0  0  0
 18  7  1  0  0  0
 28 23  1  0  0  0
 37 33  1  0  0  0
 31 38  1  0  0  0
M  CHG 1  31   1
M  END
> <minimizedAffinity>
-8.61569

> <CNNscore>
0.3809081018

> <CNNaffinity>
6.4886732101

> <CNN_VS>
2.4715881348

> <CNNaffinity_variance>
0.2091718167

$$$$



 38 44  0  0  0  0  0  0  0  0999 V2000
    7.1260    0.1821   20.1687 C   0  0  0  0  0  0  0  0  0  0  0  0
    7.5092    0.1091   21.6171 C   0  0  0  0  0  0  0  0  0  0  0  0
    8.9276   -0.3430   21.8009 C   0  0  0  0  0  0  0  0  0  0  0  0
    9.2140   -0.3839   23.2728 N   0  0  0  0  0  0  0  0  0  0  0  0
    7.9726    0.0429   23.9986 C   0  0  0  0  0  0  0  0  0  0  0  0
    7.8129    0.1468   25.4864 O   0  0  0  0  0  0  0  0  0  0  0  0
    6.9190    0.3476   22.9753 C   0  0  0  0  0  0  0  0  0  0  0  0
    6.4678    0.5433   24.3924 C   0  0  0  0  0  0  0  0  0  0  0  0
    5.0695    1.0054   24.6773 N   0  0  0  0  0  0  0  0  0  0  0  0
    4.1223    1.2718   23.5451 C   0  0  0  0  0  0  0  0  0  0  0  0
    2.7240    1.7339   23.8300 O   0  0  0  0  0  0  0  0  0  0  0  0
    4.5735    1.0762   22.1280 C   0  0  0  0  0  0  0  0  0  0  0  0
    3.6263    1.3427   20.9958 C   0  0  0  0  0  0  0  0  0  0  0  0
    4.0775    1.1470   19.5787 C   0  0  0  0  0  0  0  0  0  0  0  0
    5.4758    0.6850   19.2938 C   0  0  0  0  0  0  0  0  0  0  0  0
    5.9269    0.4893   17.8767 Cl  0  0  0  0  0  0  0  0  0  0  0  0
    6.4229    0.4185   20.4260 C   0  0  0  0  0  0  0  0  0  0  0  0
    5.9718    0.6141   21.8431 C   0  0  0  0  0  0  0  0  0  0  0  0
   10.5135   -0.7818   23.9074 C   0  0  0  0  0  0  0  0  0  0  0  0
   11.7347    0.0668   23.7114 C   0  0  0  0  0  0  0  0  0  0  0  0
   13.0343   -0.3311   24.3461 N   0  0  0  0  0  0  0  0  0  0  0  0
   13.1126   -1.5776   25.1768 C   0  0  0  0  0  0  0  0  0  0  0  0
   11.8914   -2.4262   25.3728 C   0  0  0  0  0  0  0  0  0  0  0  0
   11.9697   -3.6728   26.2035 C   0  0  0  0  0  0  0  0  0  0  0  0
   10.7484   -4.5214   26.3995 C   0  0  0  0  0  0  0  0  0  0  0  0
    9.4489   -4.1234   25.7648 C   0  0  0  0  0  0  0  0  0  0  0  0
    9.3706   -2.8769   24.9342 C   0  0  0  0  0  0  0  0  0  0  0  0
   10.5918   -2.0283   24.7381 C   0  0  0  0  0  0  0  0  0  0  0  0
    4.6183    1.2010   26.0945 C   0  0  0  0  0  0  0  0  0  0  0  0
    3.9218    0.0883   26.8202 C   0  0  0  0  0  0  0  0  0  0  0  0
    4.7121   -1.0697   27.3533 N   0  0  0  0  0  0  0  0  0  0  0  0
    5.3382   -2.1607   26.5361 C   0  0  0  0  0  0  0  0  0  0  0  0
    6.0281   -3.1053   27.4750 C   0  0  0  0  0  0  0  0  0  0  0  0
    5.2148   -1.8473   27.3998 C   0  0  0  0  0  0  0  0  0  0  0  0
    5.0151   -1.3401   28.7973 C   0  0  0  0  0  0  0  0  0  0  0  0
    5.7051   -2.2848   29.7362 C   0  0  0  0  0  0  0  0  0  0  0  0
    6.3311   -3.3757   28.9190 O   0  0  0  0  0  0  0  0  0  0  0  0
    4.5891   -1.0195   26.3420 H   0  0  0  0  0  0  0  0  0  0  0  0
  2  1  1  0  0  0
  2  3  1  0  0  0
  3  4  1  0  0  0
  4 19  1  0  0  0
 19 20  2  0  0  0
 20 21  1  0  0  0
 21 22  2  0  0  0
 22 23  1  0  0  0
 23 24  2  0  0  0
 24 25  1  0  0  0
 25 26  2  0  0  0
 26 27  1  0  0  0
 27 28  2  0  0  0
  4  5  1  0  0  0
  5  6  2  0  0  0
  5  7  1  0  0  0
  7  8  1  0  0  0
  8  9  1  0  0  0
  9 29  1  0  0  0
 29 30  1  0  0  0
 31 30  1  0  0  0
 31 32  1  0  0  0
 33 32  1  0  0  0
 33 34  1  0  0  0
 34 35  1  0  0  0
 35 36  1  0  0  0
 36 37  1  0  0  0
  9 10  1  0  0  0
 10 11  2  0  0  0
 10 12  1  0  0  0
 12 13  2  0  0  0
 13 14  1  0  0  0
 14 15  2  0  0  0
 15 16  1  0  0  0
 15 17  1  0  0  0
 17 18  2  0  0  0
  7  2  1  0  0  0
 35 31  1  0  0  0
 18 12  1  0  0  0
 28 19  1  0  0  0
 18  7  1  0  0  0
 28 23  1  0  0  0
 37 33  1  0  0  0
 31 38  1  0  0  0
M  CHG 1  31   1
M  END
> <minimizedAffinity>
-8.32633

> <CNNscore>
0.3479331136

> <CNNaffinity>
6.3410024643

> <CNN_VS>
2.2062447071

> <CNNaffinity_variance>
0.2643055320

$$$$



 38 44  0  0  0  0  0  0  0  0999 V2000
   10.9688   -3.1426   26.3929 C   0  0  0  0  0  0  0  0  0  0  0  0
    9.5949   -2.8561   25.8634 C   0  0  0  0  0  0  0  0  0  0  0  0
    8.5520   -3.7176   26.5117 C   0  0  0  0  0  0  0  0  0  0  0  0
    7.2212   -3.3589   25.9198 N   0  0  0  0  0  0  0  0  0  0  0  0
    7.4416   -2.2758   24.9059 C   0  0  0  0  0  0  0  0  0  0  0  0
    6.3811   -1.6187   24.0730 O   0  0  0  0  0  0  0  0  0  0  0  0
    8.9086   -1.9650   24.8710 C   0  0  0  0  0  0  0  0  0  0  0  0
    8.0882   -1.1432   23.9215 C   0  0  0  0  0  0  0  0  0  0  0  0
    8.7523   -0.1208   23.0477 N   0  0  0  0  0  0  0  0  0  0  0  0
   10.2369    0.0798   23.1232 C   0  0  0  0  0  0  0  0  0  0  0  0
   10.9010    1.1022   22.2494 O   0  0  0  0  0  0  0  0  0  0  0  0
   11.0574   -0.7420   24.0727 C   0  0  0  0  0  0  0  0  0  0  0  0
   12.5420   -0.5414   24.1483 C   0  0  0  0  0  0  0  0  0  0  0  0
   13.3624   -1.3632   25.0977 C   0  0  0  0  0  0  0  0  0  0  0  0
   12.6983   -2.3856   25.9716 C   0  0  0  0  0  0  0  0  0  0  0  0
   13.5188   -3.2074   26.9211 Cl  0  0  0  0  0  0  0  0  0  0  0  0
   11.2137   -2.5862   25.8960 C   0  0  0  0  0  0  0  0  0  0  0  0
   10.3933   -1.7644   24.9466 C   0  0  0  0  0  0  0  0  0  0  0  0
    5.9016   -3.9752   26.2789 C   0  0  0  0  0  0  0  0  0  0  0  0
    5.1733   -4.8237   25.2792 C   0  0  0  0  0  0  0  0  0  0  0  0
    3.8538   -5.4400   25.6383 N   0  0  0  0  0  0  0  0  0  0  0  0
    3.2626   -5.2078   26.9972 C   0  0  0  0  0  0  0  0  0  0  0  0
    3.9909   -4.3592   27.9969 C   0  0  0  0  0  0  0  0  0  0  0  0
    3.3997   -4.1270   29.3559 C   0  0  0  0  0  0  0  0  0  0  0  0
    4.1281   -3.2784   30.3555 C   0  0  0  0  0  0  0  0  0  0  0  0
    5.4476   -2.6622   29.9964 C   0  0  0  0  0  0  0  0  0  0  0  0
    6.0388   -2.8944   28.6375 C   0  0  0  0  0  0  0  0  0  0  0  0
    5.3105   -3.7429   27.6378 C   0  0  0  0  0  0  0  0  0  0  0  0
    7.9318    0.7010   22.0982 C   0  0  0  0  0  0  0  0  0  0  0  0
    7.4534    0.1025   20.8087 C   0  0  0  0  0  0  0  0  0  0  0  0
    6.2366    0.6580   20.1299 N   0  0  0  0  0  0  0  0  0  0  0  0
    5.1237    1.4129   20.7944 C   0  0  0  0  0  0  0  0  0  0  0  0
    4.1184    1.7777   19.7426 C   0  0  0  0  0  0  0  0  0  0  0  0
    5.4275    1.0857   19.9820 C   0  0  0  0  0  0  0  0  0  0  0  0
    5.9191    0.5562   18.6674 C   0  0  0  0  0  0  0  0  0  0  0  0
    4.9137    0.9209   17.6156 C   0  0  0  0  0  0  0  0  0  0  0  0
    3.8008    1.6758   18.2801 O   0  0  0  0  0  0  0  0  0  0  0  0
    6.3144    0.8074   21.1359 H   0  0  0  0  0  0  0  0  0  0  0  0
  2  1  1  0  0  0
  2  3  1  0  0  0
  3  4  1  0  0  0
  4 19  1  0  0  0
 19 20  2  0  0  0
 20 21  1  0  0  0
 21 22  2  0  0  0
 22 23  1  0  0  0
 23 24  2  0  0  0
 24 25  1  0  0  0
 25 26  2  0  0  0
 26 27  1  0  0  0
 27 28  2  0  0  0
  4  5  1  0  0  0
  5  6  2  0  0  0
  5  7  1  0  0  0
  7  8  1  0  0  0
  8  9  1  0  0  0
  9 29  1  0  0  0
 29 30  1  0  0  0
 31 30  1  0  0  0
 31 32  1  0  0  0
 33 32  1  0  0  0
 33 34  1  0  0  0
 34 35  1  0  0  0
 35 36  1  0  0  0
 36 37  1  0  0  0
  9 10  1  0  0  0
 10 11  2  0  0  0
 10 12  1  0  0  0
 12 13  2  0  0  0
 13 14  1  0  0  0
 14 15  2  0  0  0
 15 16  1  0  0  0
 15 17  1  0  0  0
 17 18  2  0  0  0
  7  2  1  0  0  0
 35 31  1  0  0  0
 18 12  1  0  0  0
 28 19  1  0  0  0
 18  7  1  0  0  0
 28 23  1  0  0  0
 37 33  1  0  0  0
 31 38  1  0  0  0
M  CHG 1  31   1
M  END
> <minimizedAffinity>
-8.91029

> <CNNscore>
0.3244611323

> <CNNaffinity>
6.6301546097

> <CNN_VS>
2.1512274742

> <CNNaffinity_variance>
0.0964843705

$$$$
