


 38 44  0  0  0  0  0  0  0  0999 V2000
   -7.2160   -4.4388  -23.3764 C   0  0  0  0  0  0  0  0  0  0  0  0
   -7.4909   -3.1243  -22.7081 C   0  0  0  0  0  0  0  0  0  0  0  0
   -6.3983   -2.7390  -21.7554 C   0  0  0  0  0  0  0  0  0  0  0  0
   -6.7624   -1.4196  -21.1416 N   0  0  0  0  0  0  0  0  0  0  0  0
   -8.0800   -0.9895  -21.7151 C   0  0  0  0  0  0  0  0  0  0  0  0
   -8.8179    0.2726  -21.3794 O   0  0  0  0  0  0  0  0  0  0  0  0
   -8.5303   -2.0430  -22.6833 C   0  0  0  0  0  0  0  0  0  0  0  0
   -9.4791   -0.8887  -22.5530 C   0  0  0  0  0  0  0  0  0  0  0  0
  -10.7463   -0.8651  -23.3554 N   0  0  0  0  0  0  0  0  0  0  0  0
  -11.0645   -1.9959  -24.2881 C   0  0  0  0  0  0  0  0  0  0  0  0
  -12.3316   -1.9724  -25.0905 O   0  0  0  0  0  0  0  0  0  0  0  0
  -10.1156   -3.1504  -24.4184 C   0  0  0  0  0  0  0  0  0  0  0  0
  -10.4338   -4.2812  -25.3511 C   0  0  0  0  0  0  0  0  0  0  0  0
   -9.4850   -5.4355  -25.4814 C   0  0  0  0  0  0  0  0  0  0  0  0
   -8.2178   -5.4591  -24.6790 C   0  0  0  0  0  0  0  0  0  0  0  0
   -7.2689   -6.6135  -24.8093 Cl  0  0  0  0  0  0  0  0  0  0  0  0
   -7.8996   -4.3283  -23.7463 C   0  0  0  0  0  0  0  0  0  0  0  0
   -8.8485   -3.1739  -23.6160 C   0  0  0  0  0  0  0  0  0  0  0  0
   -5.9513   -0.6631  -20.1317 C   0  0  0  0  0  0  0  0  0  0  0  0
   -6.3544   -0.6726  -18.6870 C   0  0  0  0  0  0  0  0  0  0  0  0
   -5.5433    0.0839  -17.6771 N   0  0  0  0  0  0  0  0  0  0  0  0
   -4.3291    0.8498  -18.1120 C   0  0  0  0  0  0  0  0  0  0  0  0
   -3.9260    0.8592  -19.5569 C   0  0  0  0  0  0  0  0  0  0  0  0
   -2.7118    1.6251  -19.9918 C   0  0  0  0  0  0  0  0  0  0  0  0
   -2.3088    1.6345  -21.4366 C   0  0  0  0  0  0  0  0  0  0  0  0
   -3.1199    0.8780  -22.4464 C   0  0  0  0  0  0  0  0  0  0  0  0
   -4.3340    0.1122  -22.0115 C   0  0  0  0  0  0  0  0  0  0  0  0
   -4.7371    0.1027  -20.5667 C   0  0  0  0  0  0  0  0  0  0  0  0
  -11.6952    0.2893  -23.2251 C   0  0  0  0  0  0  0  0  0  0  0  0
  -11.1762    1.6498  -22.8651 C   0  0  0  0  0  0  0  0  0  0  0  0
  -12.0550    2.8546  -23.0264 N   0  0  0  0  0  0  0  0  0  0  0  0
  -12.8840    3.4915  -21.9508 C   0  0  0  0  0  0  0  0  0  0  0  0
  -13.6006    4.6646  -22.5512 C   0  0  0  0  0  0  0  0  0  0  0  0
  -12.6454    3.5459  -22.8449 C   0  0  0  0  0  0  0  0  0  0  0  0
  -12.2592    3.6340  -24.2917 C   0  0  0  0  0  0  0  0  0  0  0  0
  -12.9757    4.8071  -24.8921 C   0  0  0  0  0  0  0  0  0  0  0  0
  -13.8047    5.4440  -23.8165 O   0  0  0  0  0  0  0  0  0  0  0  0
  -12.0177    2.4293  -22.1001 H   0  0  0  0  0  0  0  0  0  0  0  0
  2  1  1  0  0  0
  2  3  1  0  0  0
  3  4  1  0  0  0
  4 19  1  0  0  0
 19 20  2  0  0  0
 20 21  1  0  0  0
 21 22  2  0  0  0
 22 23  1  0  0  0
 23 24  2  0  0  0
 24 25  1  0  0  0
 25 26  2  0  0  0
 26 27  1  0  0  0
 27 28  2  0  0  0
  4  5  1  0  0  0
  5  6  2  0  0  0
  5  7  1  0  0  0
  7  8  1  0  0  0
  8  9  1  0  0  0
  9 29  1  0  0  0
 29 30  1  0  0  0
 31 30  1  0  0  0
 31 32  1  0  0  0
 33 32  1  0  0  0
 33 34  1  0  0  0
 34 35  1  0  0  0
 35 36  1  0  0  0
 36 37  1  0  0  0
  9 10  1  0  0  0
 10 11  2  0  0  0
 10 12  1  0  0  0
 12 13  2  0  0  0
 13 14  1  0  0  0
 14 15  2  0  0  0
 15 16  1  0  0  0
 15 17  1  0  0  0
 17 18  2  0  0  0
  7  2  1  0  0  0
 35 31  1  0  0  0
 18 12  1  0  0  0
 28 19  1  0  0  0
 18  7  1  0  0  0
 28 23  1  0  0  0
 37 33  1  0  0  0
 31 38  1  0  0  0
M  CHG 1  31   1
M  END
> <minimizedAffinity>
-8.86552

> <CNNscore>
0.4131724536

> <CNNaffinity>
6.5615415573

> <CNN_VS>
2.7110481262

> <CNNaffinity_variance>
0.1817311198

$$$$



 38 44  0  0  0  0  0  0  0  0999 V2000
  -11.2756   -2.5797  -22.9164 C   0  0  0  0  0  0  0  0  0  0  0  0
   -9.8106   -2.5275  -23.2345 C   0  0  0  0  0  0  0  0  0  0  0  0
   -9.1521   -3.8652  -23.0702 C   0  0  0  0  0  0  0  0  0  0  0  0
   -7.6989   -3.7112  -23.4088 N   0  0  0  0  0  0  0  0  0  0  0  0
   -7.4594   -2.2783  -23.7822 C   0  0  0  0  0  0  0  0  0  0  0  0
   -6.1454   -1.6817  -24.1915 O   0  0  0  0  0  0  0  0  0  0  0  0
   -8.7645   -1.5467  -23.6745 C   0  0  0  0  0  0  0  0  0  0  0  0
   -7.6162   -0.6850  -24.1090 C   0  0  0  0  0  0  0  0  0  0  0  0
   -7.8365    0.7715  -24.3916 N   0  0  0  0  0  0  0  0  0  0  0  0
   -9.2050    1.3664  -24.2398 C   0  0  0  0  0  0  0  0  0  0  0  0
   -9.4253    2.8230  -24.5224 O   0  0  0  0  0  0  0  0  0  0  0  0
  -10.3534    0.5047  -23.8053 C   0  0  0  0  0  0  0  0  0  0  0  0
  -11.7220    1.0995  -23.6534 C   0  0  0  0  0  0  0  0  0  0  0  0
  -12.8703    0.2378  -23.2189 C   0  0  0  0  0  0  0  0  0  0  0  0
  -12.6500   -1.2187  -22.9363 C   0  0  0  0  0  0  0  0  0  0  0  0
  -13.7984   -2.0804  -22.5017 Cl  0  0  0  0  0  0  0  0  0  0  0  0
  -11.2814   -1.8136  -23.0881 C   0  0  0  0  0  0  0  0  0  0  0  0
  -10.1331   -0.9519  -23.5226 C   0  0  0  0  0  0  0  0  0  0  0  0
   -6.6665   -4.7990  -23.3791 C   0  0  0  0  0  0  0  0  0  0  0  0
   -5.9360   -5.1051  -22.1054 C   0  0  0  0  0  0  0  0  0  0  0  0
   -4.9037   -6.1929  -22.0757 N   0  0  0  0  0  0  0  0  0  0  0  0
   -4.6019   -6.9745  -23.3198 C   0  0  0  0  0  0  0  0  0  0  0  0
   -5.3324   -6.6684  -24.5936 C   0  0  0  0  0  0  0  0  0  0  0  0
   -5.0306   -7.4501  -25.8378 C   0  0  0  0  0  0  0  0  0  0  0  0
   -5.7612   -7.1439  -27.1116 C   0  0  0  0  0  0  0  0  0  0  0  0
   -6.7935   -6.0561  -27.1412 C   0  0  0  0  0  0  0  0  0  0  0  0
   -7.0953   -5.2745  -25.8971 C   0  0  0  0  0  0  0  0  0  0  0  0
   -6.3648   -5.5806  -24.6233 C   0  0  0  0  0  0  0  0  0  0  0  0
   -6.6881    1.6333  -24.8261 C   0  0  0  0  0  0  0  0  0  0  0  0
   -5.6751    2.0957  -23.8211 C   0  0  0  0  0  0  0  0  0  0  0  0
   -5.7010    3.5118  -23.3274 N   0  0  0  0  0  0  0  0  0  0  0  0
   -4.6092    4.5258  -23.5001 C   0  0  0  0  0  0  0  0  0  0  0  0
   -5.0566    5.8033  -22.8536 C   0  0  0  0  0  0  0  0  0  0  0  0
   -5.4548    4.3871  -23.1464 C   0  0  0  0  0  0  0  0  0  0  0  0
   -6.8231    4.1626  -22.5741 C   0  0  0  0  0  0  0  0  0  0  0  0
   -7.2705    5.4400  -21.9277 C   0  0  0  0  0  0  0  0  0  0  0  0
   -6.1787    6.4541  -22.1004 O   0  0  0  0  0  0  0  0  0  0  0  0
   -4.8640    3.2106  -23.8265 H   0  0  0  0  0  0  0  0  0  0  0  0
  2  1  1  0  0  0
  2  3  1  0  0  0
  3  4  1  0  0  0
  4 19  1  0  0  0
 19 20  2  0  0  0
 20 21  1  0  0  0
 21 22  2  0  0  0
 22 23  1  0  0  0
 23 24  2  0  0  0
 24 25  1  0  0  0
 25 26  2  0  0  0
 26 27  1  0  0  0
 27 28  2  0  0  0
  4  5  1  0  0  0
  5  6  2  0  0  0
  5  7  1  0  0  0
  7  8  1  0  0  0
  8  9  1  0  0  0
  9 29  1  0  0  0
 29 30  1  0  0  0
 31 30  1  0  0  0
 31 32  1  0  0  0
 33 32  1  0  0  0
 33 34  1  0  0  0
 34 35  1  0  0  0
 35 36  1  0  0  0
 36 37  1  0  0  0
  9 10  1  0  0  0
 10 11  2  0  0  0
 10 12  1  0  0  0
 12 13  2  0  0  0
 13 14  1  0  0  0
 14 15  2  0  0  0
 15 16  1  0  0  0
 15 17  1  0  0  0
 17 18  2  0  0  0
  7  2  1  0  0  0
 35 31  1  0  0  0
 18 12  1  0  0  0
 28 19  1  0  0  0
 18  7  1  0  0  0
 28 23  1  0  0  0
 37 33  1  0  0  0
 31 38  1  0  0  0
M  CHG 1  31   1
M  END
> <minimizedAffinity>
-7.63136

> <CNNscore>
0.3969904184

> <CNNaffinity>
6.3669753075

> <CNN_VS>
2.5276281834

> <CNNaffinity_variance>
0.1833543777

$$$$



 38 44  0  0  0  0  0  0  0  0999 V2000
   -7.2090    0.2322  -21.0974 C   0  0  0  0  0  0  0  0  0  0  0  0
   -8.3819    0.0465  -22.0139 C   0  0  0  0  0  0  0  0  0  0  0  0
   -9.1910    1.3020  -22.1524 C   0  0  0  0  0  0  0  0  0  0  0  0
  -10.3332    1.0171  -23.0820 N   0  0  0  0  0  0  0  0  0  0  0  0
  -10.2299   -0.4144  -23.5181 C   0  0  0  0  0  0  0  0  0  0  0  0
  -11.1680   -1.1218  -24.4506 O   0  0  0  0  0  0  0  0  0  0  0  0
   -9.0240   -1.0143  -22.8579 C   0  0  0  0  0  0  0  0  0  0  0  0
   -9.7733   -1.9673  -23.7412 C   0  0  0  0  0  0  0  0  0  0  0  0
   -9.2936   -3.3799  -23.8977 N   0  0  0  0  0  0  0  0  0  0  0  0
   -8.0647   -3.8395  -23.1708 C   0  0  0  0  0  0  0  0  0  0  0  0
   -7.5850   -5.2521  -23.3273 O   0  0  0  0  0  0  0  0  0  0  0  0
   -7.3153   -2.8865  -22.2874 C   0  0  0  0  0  0  0  0  0  0  0  0
   -6.0863   -3.3461  -21.5606 C   0  0  0  0  0  0  0  0  0  0  0  0
   -5.3370   -2.3931  -20.6773 C   0  0  0  0  0  0  0  0  0  0  0  0
   -5.8167   -0.9804  -20.5208 C   0  0  0  0  0  0  0  0  0  0  0  0
   -5.0673   -0.0274  -19.6374 Cl  0  0  0  0  0  0  0  0  0  0  0  0
   -7.0457   -0.5208  -21.2477 C   0  0  0  0  0  0  0  0  0  0  0  0
   -7.7950   -1.4738  -22.1310 C   0  0  0  0  0  0  0  0  0  0  0  0
  -11.3926    1.9925  -23.5019 C   0  0  0  0  0  0  0  0  0  0  0  0
  -12.7804    1.8785  -22.9444 C   0  0  0  0  0  0  0  0  0  0  0  0
  -13.8398    2.8538  -23.3643 N   0  0  0  0  0  0  0  0  0  0  0  0
  -13.5114    3.9432  -24.3418 C   0  0  0  0  0  0  0  0  0  0  0  0
  -12.1235    4.0571  -24.8993 C   0  0  0  0  0  0  0  0  0  0  0  0
  -11.7950    5.1466  -25.8768 C   0  0  0  0  0  0  0  0  0  0  0  0
  -10.4071    5.2605  -26.4343 C   0  0  0  0  0  0  0  0  0  0  0  0
   -9.3478    4.2851  -26.0143 C   0  0  0  0  0  0  0  0  0  0  0  0
   -9.6763    3.1958  -25.0369 C   0  0  0  0  0  0  0  0  0  0  0  0
  -11.0641    3.0818  -24.4794 C   0  0  0  0  0  0  0  0  0  0  0  0
  -10.0430   -4.3329  -24.7811 C   0  0  0  0  0  0  0  0  0  0  0  0
   -9.8644   -4.2745  -26.2692 C   0  0  0  0  0  0  0  0  0  0  0  0
   -8.9927   -5.2809  -26.9600 N   0  0  0  0  0  0  0  0  0  0  0  0
   -9.3655   -6.0888  -28.1677 C   0  0  0  0  0  0  0  0  0  0  0  0
   -8.1985   -6.9634  -28.5185 C   0  0  0  0  0  0  0  0  0  0  0  0
   -8.6894   -5.9236  -27.5553 C   0  0  0  0  0  0  0  0  0  0  0  0
   -7.5954   -5.6563  -26.5645 C   0  0  0  0  0  0  0  0  0  0  0  0
   -6.4284   -6.5309  -26.9153 C   0  0  0  0  0  0  0  0  0  0  0  0
   -6.8011   -7.3388  -28.1229 O   0  0  0  0  0  0  0  0  0  0  0  0
   -9.9246   -5.1322  -27.3471 H   0  0  0  0  0  0  0  0  0  0  0  0
  2  1  1  0  0  0
  2  3  1  0  0  0
  3  4  1  0  0  0
  4 19  1  0  0  0
 19 20  2  0  0  0
 20 21  1  0  0  0
 21 22  2  0  0  0
 22 23  1  0  0  0
 23 24  2  0  0  0
 24 25  1  0  0  0
 25 26  2  0  0  0
 26 27  1  0  0  0
 27 28  2  0  0  0
  4  5  1  0  0  0
  5  6  2  0  0  0
  5  7  1  0  0  0
  7  8  1  0  0  0
  8  9  1  0  0  0
  9 29  1  0  0  0
 29 30  1  0  0  0
 31 30  1  0  0  0
 31 32  1  0  0  0
 33 32  1  0  0  0
 33 34  1  0  0  0
 34 35  1  0  0  0
 35 36  1  0  0  0
 36 37  1  0  0  0
  9 10  1  0  0  0
 10 11  2  0  0  0
 10 12  1  0  0  0
 12 13  2  0  0  0
 13 14  1  0  0  0
 14 15  2  0  0  0
 15 16  1  0  0  0
 15 17  1  0  0  0
 17 18  2  0  0  0
  7  2  1  0  0  0
 35 31  1  0  0  0
 18 12  1  0  0  0
 28 19  1  0  0  0
 18  7  1  0  0  0
 28 23  1  0  0  0
 37 33  1  0  0  0
 31 38  1  0  0  0
M  CHG 1  31   1
M  END
> <minimizedAffinity>
-8.99129

> <CNNscore>
0.2825480402

> <CNNaffinity>
6.2377948761

> <CNN_VS>
1.7624766827

> <CNNaffinity_variance>
0.2238575518

$$$$



 38 44  0  0  0  0  0  0  0  0999 V2000
  -10.6279   -4.3796  -25.6427 C   0  0  0  0  0  0  0  0  0  0  0  0
  -10.2539   -3.2562  -24.7217 C   0  0  0  0  0  0  0  0  0  0  0  0
  -11.2165   -2.1095  -24.8145 C   0  0  0  0  0  0  0  0  0  0  0  0
  -10.7605   -1.0434  -23.8629 N   0  0  0  0  0  0  0  0  0  0  0  0
   -9.5162   -1.5313  -23.1820 C   0  0  0  0  0  0  0  0  0  0  0  0
   -8.7240   -0.7829  -22.1513 O   0  0  0  0  0  0  0  0  0  0  0  0
   -9.2031   -2.8988  -23.7128 C   0  0  0  0  0  0  0  0  0  0  0  0
   -8.2281   -2.4053  -22.6853 C   0  0  0  0  0  0  0  0  0  0  0  0
   -7.0678   -3.2646  -22.2785 N   0  0  0  0  0  0  0  0  0  0  0  0
   -6.8826   -4.6174  -22.8993 C   0  0  0  0  0  0  0  0  0  0  0  0
   -5.7224   -5.4768  -22.4925 O   0  0  0  0  0  0  0  0  0  0  0  0
   -7.8576   -5.1111  -23.9268 C   0  0  0  0  0  0  0  0  0  0  0  0
   -7.6724   -6.4640  -24.5475 C   0  0  0  0  0  0  0  0  0  0  0  0
   -8.6474   -6.9575  -25.5750 C   0  0  0  0  0  0  0  0  0  0  0  0
   -9.8076   -6.0982  -25.9817 C   0  0  0  0  0  0  0  0  0  0  0  0
  -10.7826   -6.5919  -27.0093 Cl  0  0  0  0  0  0  0  0  0  0  0  0
   -9.9928   -4.7454  -25.3610 C   0  0  0  0  0  0  0  0  0  0  0  0
   -9.0179   -4.2518  -24.3335 C   0  0  0  0  0  0  0  0  0  0  0  0
  -11.4312    0.2784  -23.6326 C   0  0  0  0  0  0  0  0  0  0  0  0
  -12.8238    0.3262  -23.0775 C   0  0  0  0  0  0  0  0  0  0  0  0
  -13.4944    1.6480  -22.8472 N   0  0  0  0  0  0  0  0  0  0  0  0
  -12.7723    2.9220  -23.1720 C   0  0  0  0  0  0  0  0  0  0  0  0
  -11.3796    2.8742  -23.7271 C   0  0  0  0  0  0  0  0  0  0  0  0
  -10.6575    4.1483  -24.0518 C   0  0  0  0  0  0  0  0  0  0  0  0
   -9.2648    4.1003  -24.6069 C   0  0  0  0  0  0  0  0  0  0  0  0
   -8.5942    2.7785  -24.8372 C   0  0  0  0  0  0  0  0  0  0  0  0
   -9.3163    1.5045  -24.5124 C   0  0  0  0  0  0  0  0  0  0  0  0
  -10.7090    1.5524  -23.9574 C   0  0  0  0  0  0  0  0  0  0  0  0
   -6.0928   -2.7709  -21.2510 C   0  0  0  0  0  0  0  0  0  0  0  0
   -5.1926   -1.6133  -21.5665 C   0  0  0  0  0  0  0  0  0  0  0  0
   -4.8647   -0.6070  -20.5037 N   0  0  0  0  0  0  0  0  0  0  0  0
   -3.9279    0.5555  -20.6491 C   0  0  0  0  0  0  0  0  0  0  0  0
   -3.9002    1.2946  -19.3441 C   0  0  0  0  0  0  0  0  0  0  0  0
   -4.4963    0.1194  -20.0608 C   0  0  0  0  0  0  0  0  0  0  0  0
   -5.4159   -0.5863  -19.1087 C   0  0  0  0  0  0  0  0  0  0  0  0
   -5.3882    0.1527  -17.8038 C   0  0  0  0  0  0  0  0  0  0  0  0
   -4.4514    1.3152  -17.9492 O   0  0  0  0  0  0  0  0  0  0  0  0
   -4.4087   -0.4901  -21.4086 H   0  0  0  0  0  0  0  0  0  0  0  0
  2  1  1  0  0  0
  2  3  1  0  0  0
  3  4  1  0  0  0
  4 19  1  0  0  0
 19 20  2  0  0  0
 20 21  1  0  0  0
 21 22  2  0  0  0
 22 23  1  0  0  0
 23 24  2  0  0  0
 24 25  1  0  0  0
 25 26  2  0  0  0
 26 27  1  0  0  0
 27 28  2  0  0  0
  4  5  1  0  0  0
  5  6  2  0  0  0
  5  7  1  0  0  0
  7  8  1  0  0  0
  8  9  1  0  0  0
  9 29  1  0  0  0
 29 30  1  0  0  0
 31 30  1  0  0  0
 31 32  1  0  0  0
 33 32  1  0  0  0
 33 34  1  0  0  0
 34 35  1  0  0  0
 35 36  1  0  0  0
 36 37  1  0  0  0
  9 10  1  0  0  0
 10 11  2  0  0  0
 10 12  1  0  0  0
 12 13  2  0  0  0
 13 14  1  0  0  0
 14 15  2  0  0  0
 15 16  1  0  0  0
 15 17  1  0  0  0
 17 18  2  0  0  0
  7  2  1  0  0  0
 35 31  1  0  0  0
 18 12  1  0  0  0
 28 19  1  0  0  0
 18  7  1  0  0  0
 28 23  1  0  0  0
 37 33  1  0  0  0
 31 38  1  0  0  0
M  CHG 1  31   1
M  END
> <minimizedAffinity>
-8.56758

> <CNNscore>
0.2301625311

> <CNNaffinity>
6.4468483925

> <CNN_VS>
1.4838229418

> <CNNaffinity_variance>
0.0842291787

$$$$



 38 44  0  0  0  0  0  0  0  0999 V2000
  -10.8209   -2.2084  -24.3647 C   0  0  0  0  0  0  0  0  0  0  0  0
  -10.4078   -0.8215  -23.9699 C   0  0  0  0  0  0  0  0  0  0  0  0
  -11.5801    0.1101  -23.8813 C   0  0  0  0  0  0  0  0  0  0  0  0
  -11.0683    1.4627  -23.4830 N   0  0  0  0  0  0  0  0  0  0  0  0
   -9.5797    1.3670  -23.3254 C   0  0  0  0  0  0  0  0  0  0  0  0
   -8.6606    2.4864  -22.9354 O   0  0  0  0  0  0  0  0  0  0  0  0
   -9.1714   -0.0447  -23.6263 C   0  0  0  0  0  0  0  0  0  0  0  0
   -8.0287    0.8565  -23.2632 C   0  0  0  0  0  0  0  0  0  0  0  0
   -6.6298    0.3165  -23.2270 N   0  0  0  0  0  0  0  0  0  0  0  0
   -6.3736   -1.1249  -23.5537 C   0  0  0  0  0  0  0  0  0  0  0  0
   -4.9747   -1.6650  -23.5175 O   0  0  0  0  0  0  0  0  0  0  0  0
   -7.5164   -2.0262  -23.9168 C   0  0  0  0  0  0  0  0  0  0  0  0
   -7.2602   -3.4676  -24.2436 C   0  0  0  0  0  0  0  0  0  0  0  0
   -8.4029   -4.3688  -24.6067 C   0  0  0  0  0  0  0  0  0  0  0  0
   -9.8018   -3.8287  -24.6430 C   0  0  0  0  0  0  0  0  0  0  0  0
  -10.9446   -4.7301  -25.0061 Cl  0  0  0  0  0  0  0  0  0  0  0  0
  -10.0580   -2.3874  -24.3162 C   0  0  0  0  0  0  0  0  0  0  0  0
   -8.9153   -1.4861  -23.9531 C   0  0  0  0  0  0  0  0  0  0  0  0
  -11.8992    2.6946  -23.2782 C   0  0  0  0  0  0  0  0  0  0  0  0
  -12.8662    2.7654  -22.1338 C   0  0  0  0  0  0  0  0  0  0  0  0
  -13.6970    3.9973  -21.9290 N   0  0  0  0  0  0  0  0  0  0  0  0
  -13.5608    5.1585  -22.8688 C   0  0  0  0  0  0  0  0  0  0  0  0
  -12.5938    5.0877  -24.0132 C   0  0  0  0  0  0  0  0  0  0  0  0
  -12.4576    6.2490  -24.9530 C   0  0  0  0  0  0  0  0  0  0  0  0
  -11.4905    6.1782  -26.0974 C   0  0  0  0  0  0  0  0  0  0  0  0
  -10.6597    4.9462  -26.3021 C   0  0  0  0  0  0  0  0  0  0  0  0
  -10.7959    3.7850  -25.3624 C   0  0  0  0  0  0  0  0  0  0  0  0
  -11.7629    3.8558  -24.2180 C   0  0  0  0  0  0  0  0  0  0  0  0
   -5.4870    1.2178  -22.8639 C   0  0  0  0  0  0  0  0  0  0  0  0
   -4.3982    0.7212  -21.9596 C   0  0  0  0  0  0  0  0  0  0  0  0
   -4.7265    0.2737  -20.5661 N   0  0  0  0  0  0  0  0  0  0  0  0
   -4.3786    1.0014  -19.3014 C   0  0  0  0  0  0  0  0  0  0  0  0
   -4.8974    0.1973  -18.1463 C   0  0  0  0  0  0  0  0  0  0  0  0
   -4.7918    0.2446  -19.6418 C   0  0  0  0  0  0  0  0  0  0  0  0
   -5.4603   -0.9801  -20.1926 C   0  0  0  0  0  0  0  0  0  0  0  0
   -5.9791   -1.7842  -19.0374 C   0  0  0  0  0  0  0  0  0  0  0  0
   -5.6312   -1.0565  -17.7728 O   0  0  0  0  0  0  0  0  0  0  0  0
   -4.2201    1.1538  -20.6626 H   0  0  0  0  0  0  0  0  0  0  0  0
  2  1  1  0  0  0
  2  3  1  0  0  0
  3  4  1  0  0  0
  4 19  1  0  0  0
 19 20  2  0  0  0
 20 21  1  0  0  0
 21 22  2  0  0  0
 22 23  1  0  0  0
 23 24  2  0  0  0
 24 25  1  0  0  0
 25 26  2  0  0  0
 26 27  1  0  0  0
 27 28  2  0  0  0
  4  5  1  0  0  0
  5  6  2  0  0  0
  5  7  1  0  0  0
  7  8  1  0  0  0
  8  9  1  0  0  0
  9 29  1  0  0  0
 29 30  1  0  0  0
 31 30  1  0  0  0
 31 32  1  0  0  0
 33 32  1  0  0  0
 33 34  1  0  0  0
 34 35  1  0  0  0
 35 36  1  0  0  0
 36 37  1  0  0  0
  9 10  1  0  0  0
 10 11  2  0  0  0
 10 12  1  0  0  0
 12 13  2  0  0  0
 13 14  1  0  0  0
 14 15  2  0  0  0
 15 16  1  0  0  0
 15 17  1  0  0  0
 17 18  2  0  0  0
  7  2  1  0  0  0
 35 31  1  0  0  0
 18 12  1  0  0  0
 28 19  1  0  0  0
 18  7  1  0  0  0
 28 23  1  0  0  0
 37 33  1  0  0  0
 31 38  1  0  0  0
M  CHG 1  31   1
M  END
> <minimizedAffinity>
-8.58473

> <CNNscore>
0.2121291459

> <CNNaffinity>
6.3266558647

> <CNN_VS>
1.3420680761

> <CNNaffinity_variance>
0.1505743414

$$$$



 38 44  0  0  0  0  0  0  0  0999 V2000
  -11.4540   -1.7305  -23.2301 C   0  0  0  0  0  0  0  0  0  0  0  0
   -9.9559   -1.7653  -23.2985 C   0  0  0  0  0  0  0  0  0  0  0  0
   -9.4216   -3.1639  -23.2065 C   0  0  0  0  0  0  0  0  0  0  0  0
   -7.9252   -3.0944  -23.2835 N   0  0  0  0  0  0  0  0  0  0  0  0
   -7.5347   -1.6528  -23.4231 C   0  0  0  0  0  0  0  0  0  0  0  0
   -6.1349   -1.1253  -23.5339 O   0  0  0  0  0  0  0  0  0  0  0  0
   -8.7898   -0.8314  -23.4323 C   0  0  0  0  0  0  0  0  0  0  0  0
   -7.5317   -0.0246  -23.5599 C   0  0  0  0  0  0  0  0  0  0  0  0
   -7.6074    1.4685  -23.6817 N   0  0  0  0  0  0  0  0  0  0  0  0
   -8.9411    2.1549  -23.6758 C   0  0  0  0  0  0  0  0  0  0  0  0
   -9.0167    3.6480  -23.7976 O   0  0  0  0  0  0  0  0  0  0  0  0
  -10.1992    1.3481  -23.5483 C   0  0  0  0  0  0  0  0  0  0  0  0
  -11.5329    2.0345  -23.5424 C   0  0  0  0  0  0  0  0  0  0  0  0
  -12.7910    1.2277  -23.4149 C   0  0  0  0  0  0  0  0  0  0  0  0
  -12.7154   -0.2654  -23.2931 C   0  0  0  0  0  0  0  0  0  0  0  0
  -13.9736   -1.0722  -23.1655 Cl  0  0  0  0  0  0  0  0  0  0  0  0
  -11.3817   -0.9518  -23.2989 C   0  0  0  0  0  0  0  0  0  0  0  0
  -10.1236   -0.1450  -23.4265 C   0  0  0  0  0  0  0  0  0  0  0  0
   -6.9844   -4.2615  -23.2303 C   0  0  0  0  0  0  0  0  0  0  0  0
   -6.2493   -4.5749  -21.9610 C   0  0  0  0  0  0  0  0  0  0  0  0
   -5.3085   -5.7420  -21.9077 N   0  0  0  0  0  0  0  0  0  0  0  0
   -5.1029   -6.5956  -23.1239 C   0  0  0  0  0  0  0  0  0  0  0  0
   -5.8381   -6.2821  -24.3933 C   0  0  0  0  0  0  0  0  0  0  0  0
   -5.6325   -7.1358  -25.6095 C   0  0  0  0  0  0  0  0  0  0  0  0
   -6.3677   -6.8223  -26.8788 C   0  0  0  0  0  0  0  0  0  0  0  0
   -7.3084   -5.6552  -26.9319 C   0  0  0  0  0  0  0  0  0  0  0  0
   -7.5140   -4.8016  -25.7158 C   0  0  0  0  0  0  0  0  0  0  0  0
   -6.7789   -5.1151  -24.4465 C   0  0  0  0  0  0  0  0  0  0  0  0
   -6.3492    2.2753  -23.8092 C   0  0  0  0  0  0  0  0  0  0  0  0
   -5.0217    1.6482  -23.5019 C   0  0  0  0  0  0  0  0  0  0  0  0
   -4.4749    1.6961  -22.1060 N   0  0  0  0  0  0  0  0  0  0  0  0
   -4.9559    0.8811  -20.9422 C   0  0  0  0  0  0  0  0  0  0  0  0
   -4.1293    1.2487  -19.7457 C   0  0  0  0  0  0  0  0  0  0  0  0
   -4.3429    1.5252  -21.2044 C   0  0  0  0  0  0  0  0  0  0  0  0
   -3.3510    2.5674  -21.6287 C   0  0  0  0  0  0  0  0  0  0  0  0
   -2.5244    2.9350  -20.4322 C   0  0  0  0  0  0  0  0  0  0  0  0
   -3.0054    2.1200  -19.2684 O   0  0  0  0  0  0  0  0  0  0  0  0
   -5.2447    1.0499  -22.2798 H   0  0  0  0  0  0  0  0  0  0  0  0
  2  1  1  0  0  0
  2  3  1  0  0  0
  3  4  1  0  0  0
  4 19  1  0  0  0
 19 20  2  0  0  0
 20 21  1  0  0  0
 21 22  2  0  0  0
 22 23  1  0  0  0
 23 24  2  0  0  0
 24 25  1  0  0  0
 25 26  2  0  0  0
 26 27  1  0  0  0
 27 28  2  0  0  0
  4  5  1  0  0  0
  5  6  2  0  0  0
  5  7  1  0  0  0
  7  8  1  0  0  0
  8  9  1  0  0  0
  9 29  1  0  0  0
 29 30  1  0  0  0
 31 30  1  0  0  0
 31 32  1  0  0  0
 33 32  1  0  0  0
 33 34  1  0  0  0
 34 35  1  0  0  0
 35 36  1  0  0  0
 36 37  1  0  0  0
  9 10  1  0  0  0
 10 11  2  0  0  0
 10 12  1  0  0  0
 12 13  2  0  0  0
 13 14  1  0  0  0
 14 15  2  0  0  0
 15 16  1  0  0  0
 15 17  1  0  0  0
 17 18  2  0  0  0
  7  2  1  0  0  0
 35 31  1  0  0  0
 18 12  1  0  0  0
 28 19  1  0  0  0
 18  7  1  0  0  0
 28 23  1  0  0  0
 37 33  1  0  0  0
 31 38  1  0  0  0
M  CHG 1  31   1
M  END
> <minimizedAffinity>
-8.71302

> <CNNscore>
0.1854846776

> <CNNaffinity>
6.2008490562

> <CNN_VS>
1.1501624584

> <CNNaffinity_variance>
0.2948693633

$$$$



 38 44  0  0  0  0  0  0  0  0999 V2000
  -11.1796   -1.7166  -23.6365 C   0  0  0  0  0  0  0  0  0  0  0  0
   -9.7175   -2.0459  -23.5731 C   0  0  0  0  0  0  0  0  0  0  0  0
   -9.4667   -3.5184  -23.7103 C   0  0  0  0  0  0  0  0  0  0  0  0
   -7.9859   -3.7454  -23.6349 N   0  0  0  0  0  0  0  0  0  0  0  0
   -7.3215   -2.4132  -23.4511 C   0  0  0  0  0  0  0  0  0  0  0  0
   -5.8460   -2.1734  -23.3273 O   0  0  0  0  0  0  0  0  0  0  0  0
   -8.3917   -1.3628  -23.4129 C   0  0  0  0  0  0  0  0  0  0  0  0
   -7.0006   -0.8221  -23.2633 C   0  0  0  0  0  0  0  0  0  0  0  0
   -6.7831    0.6524  -23.0945 N   0  0  0  0  0  0  0  0  0  0  0  0
   -7.9568    1.5863  -23.0754 C   0  0  0  0  0  0  0  0  0  0  0  0
   -7.7393    3.0608  -22.9066 O   0  0  0  0  0  0  0  0  0  0  0  0
   -9.3480    1.0456  -23.2250 C   0  0  0  0  0  0  0  0  0  0  0  0
  -10.5217    1.9795  -23.2059 C   0  0  0  0  0  0  0  0  0  0  0  0
  -11.9128    1.4388  -23.3556 C   0  0  0  0  0  0  0  0  0  0  0  0
  -12.1302   -0.0357  -23.5243 C   0  0  0  0  0  0  0  0  0  0  0  0
  -13.5214   -0.5764  -23.6740 Cl  0  0  0  0  0  0  0  0  0  0  0  0
  -10.9566   -0.9696  -23.5434 C   0  0  0  0  0  0  0  0  0  0  0  0
   -9.5654   -0.4289  -23.3938 C   0  0  0  0  0  0  0  0  0  0  0  0
   -7.2914   -5.0717  -23.7272 C   0  0  0  0  0  0  0  0  0  0  0  0
   -7.1431   -5.9273  -22.5041 C   0  0  0  0  0  0  0  0  0  0  0  0
   -6.4486   -7.2536  -22.5964 N   0  0  0  0  0  0  0  0  0  0  0  0
   -5.9024   -7.7243  -23.9117 C   0  0  0  0  0  0  0  0  0  0  0  0
   -6.0508   -6.8687  -25.1348 C   0  0  0  0  0  0  0  0  0  0  0  0
   -5.5046   -7.3395  -26.4502 C   0  0  0  0  0  0  0  0  0  0  0  0
   -5.6530   -6.4838  -27.6732 C   0  0  0  0  0  0  0  0  0  0  0  0
   -6.3475   -5.1575  -27.5809 C   0  0  0  0  0  0  0  0  0  0  0  0
   -6.8936   -4.6868  -26.2656 C   0  0  0  0  0  0  0  0  0  0  0  0
   -6.7453   -5.5424  -25.0426 C   0  0  0  0  0  0  0  0  0  0  0  0
   -5.3919    1.1931  -22.9449 C   0  0  0  0  0  0  0  0  0  0  0  0
   -4.3877    0.4581  -22.1076 C   0  0  0  0  0  0  0  0  0  0  0  0
   -4.6971    0.1362  -20.6756 N   0  0  0  0  0  0  0  0  0  0  0  0
   -4.3626    0.9893  -19.4880 C   0  0  0  0  0  0  0  0  0  0  0  0
   -4.8540    0.2851  -18.2582 C   0  0  0  0  0  0  0  0  0  0  0  0
   -4.7570    0.1931  -19.7522 C   0  0  0  0  0  0  0  0  0  0  0  0
   -5.3952   -1.0953  -20.1797 C   0  0  0  0  0  0  0  0  0  0  0  0
   -5.8867   -1.7996  -18.9498 C   0  0  0  0  0  0  0  0  0  0  0  0
   -5.5522   -0.9464  -17.7623 O   0  0  0  0  0  0  0  0  0  0  0  0
   -4.2149    1.0162  -20.8587 H   0  0  0  0  0  0  0  0  0  0  0  0
  2  1  1  0  0  0
  2  3  1  0  0  0
  3  4  1  0  0  0
  4 19  1  0  0  0
 19 20  2  0  0  0
 20 21  1  0  0  0
 21 22  2  0  0  0
 22 23  1  0  0  0
 23 24  2  0  0  0
 24 25  1  0  0  0
 25 26  2  0  0  0
 26 27  1  0  0  0
 27 28  2  0  0  0
  4  5  1  0  0  0
  5  6  2  0  0  0
  5  7  1  0  0  0
  7  8  1  0  0  0
  8  9  1  0  0  0
  9 29  1  0  0  0
 29 30  1  0  0  0
 31 30  1  0  0  0
 31 32  1  0  0  0
 33 32  1  0  0  0
 33 34  1  0  0  0
 34 35  1  0  0  0
 35 36  1  0  0  0
 36 37  1  0  0  0
  9 10  1  0  0  0
 10 11  2  0  0  0
 10 12  1  0  0  0
 12 13  2  0  0  0
 13 14  1  0  0  0
 14 15  2  0  0  0
 15 16  1  0  0  0
 15 17  1  0  0  0
 17 18  2  0  0  0
  7  2  1  0  0  0
 35 31  1  0  0  0
 18 12  1  0  0  0
 28 19  1  0  0  0
 18  7  1  0  0  0
 28 23  1  0  0  0
 37 33  1  0  0  0
 31 38  1  0  0  0
M  CHG 1  31   1
M  END
> <minimizedAffinity>
-9.15686

> <CNNscore>
0.1693259329

> <CNNaffinity>
6.2871603966

> <CNN_VS>
1.0645792484

> <CNNaffinity_variance>
0.5050650239

$$$$



 38 44  0  0  0  0  0  0  0  0999 V2000
  -10.2912    1.7890  -22.8484 C   0  0  0  0  0  0  0  0  0  0  0  0
   -9.0729    0.9488  -22.6037 C   0  0  0  0  0  0  0  0  0  0  0  0
   -7.9221    1.7634  -22.0918 C   0  0  0  0  0  0  0  0  0  0  0  0
   -6.7590    0.8403  -21.8793 N   0  0  0  0  0  0  0  0  0  0  0  0
   -7.1910   -0.5448  -22.2600 C   0  0  0  0  0  0  0  0  0  0  0  0
   -6.3420   -1.7800  -22.2029 O   0  0  0  0  0  0  0  0  0  0  0  0
   -8.6211   -0.4777  -22.7077 C   0  0  0  0  0  0  0  0  0  0  0  0
   -8.0299   -1.8554  -22.7583 C   0  0  0  0  0  0  0  0  0  0  0  0
   -8.8620   -3.0118  -23.2275 N   0  0  0  0  0  0  0  0  0  0  0  0
  -10.2853   -2.7907  -23.6461 C   0  0  0  0  0  0  0  0  0  0  0  0
  -11.1175   -3.9471  -24.1154 O   0  0  0  0  0  0  0  0  0  0  0  0
  -10.8766   -1.4130  -23.5955 C   0  0  0  0  0  0  0  0  0  0  0  0
  -12.2999   -1.1918  -24.0141 C   0  0  0  0  0  0  0  0  0  0  0  0
  -12.8911    0.1858  -23.9635 C   0  0  0  0  0  0  0  0  0  0  0  0
  -12.0589    1.3423  -23.4942 C   0  0  0  0  0  0  0  0  0  0  0  0
  -12.6502    2.7200  -23.4436 Cl  0  0  0  0  0  0  0  0  0  0  0  0
  -10.6356    1.1211  -23.0756 C   0  0  0  0  0  0  0  0  0  0  0  0
  -10.0445   -0.2565  -23.1263 C   0  0  0  0  0  0  0  0  0  0  0  0
   -5.4022    1.2333  -21.3749 C   0  0  0  0  0  0  0  0  0  0  0  0
   -4.8330    0.5676  -20.1572 C   0  0  0  0  0  0  0  0  0  0  0  0
   -3.4762    0.9606  -19.6527 N   0  0  0  0  0  0  0  0  0  0  0  0
   -2.6885    2.0193  -20.3660 C   0  0  0  0  0  0  0  0  0  0  0  0
   -3.2577    2.6851  -21.5837 C   0  0  0  0  0  0  0  0  0  0  0  0
   -2.4700    3.7438  -22.2969 C   0  0  0  0  0  0  0  0  0  0  0  0
   -3.0393    4.4095  -23.5146 C   0  0  0  0  0  0  0  0  0  0  0  0
   -4.3961    4.0165  -24.0190 C   0  0  0  0  0  0  0  0  0  0  0  0
   -5.1838    2.9578  -23.3058 C   0  0  0  0  0  0  0  0  0  0  0  0
   -4.6146    2.2921  -22.0882 C   0  0  0  0  0  0  0  0  0  0  0  0
   -8.2708   -4.3895  -23.2782 C   0  0  0  0  0  0  0  0  0  0  0  0
   -7.2598   -4.7335  -24.3314 C   0  0  0  0  0  0  0  0  0  0  0  0
   -7.7131   -5.2255  -25.6739 N   0  0  0  0  0  0  0  0  0  0  0  0
   -7.1734   -6.4197  -26.4036 C   0  0  0  0  0  0  0  0  0  0  0  0
   -7.9125   -6.5419  -27.7032 C   0  0  0  0  0  0  0  0  0  0  0  0
   -7.7892   -5.7283  -26.4490 C   0  0  0  0  0  0  0  0  0  0  0  0
   -8.7858   -4.6096  -26.5225 C   0  0  0  0  0  0  0  0  0  0  0  0
   -9.5249   -4.7318  -27.8220 C   0  0  0  0  0  0  0  0  0  0  0  0
   -8.9852   -5.9260  -28.5517 O   0  0  0  0  0  0  0  0  0  0  0  0
   -6.9694   -5.7514  -25.2150 H   0  0  0  0  0  0  0  0  0  0  0  0
  2  1  1  0  0  0
  2  3  1  0  0  0
  3  4  1  0  0  0
  4 19  1  0  0  0
 19 20  2  0  0  0
 20 21  1  0  0  0
 21 22  2  0  0  0
 22 23  1  0  0  0
 23 24  2  0  0  0
 24 25  1  0  0  0
 25 26  2  0  0  0
 26 27  1  0  0  0
 27 28  2  0  0  0
  4  5  1  0  0  0
  5  6  2  0  0  0
  5  7  1  0  0  0
  7  8  1  0  0  0
  8  9  1  0  0  0
  9 29  1  0  0  0
 29 30  1  0  0  0
 31 30  1  0  0  0
 31 32  1  0  0  0
 33 32  1  0  0  0
 33 34  1  0  0  0
 34 35  1  0  0  0
 35 36  1  0  0  0
 36 37  1  0  0  0
  9 10  1  0  0  0
 10 11  2  0  0  0
 10 12  1  0  0  0
 12 13  2  0  0  0
 13 14  1  0  0  0
 14 15  2  0  0  0
 15 16  1  0  0  0
 15 17  1  0  0  0
 17 18  2  0  0  0
  7  2  1  0  0  0
 35 31  1  0  0  0
 18 12  1  0  0  0
 28 19  1  0  0  0
 18  7  1  0  0  0
 28 23  1  0  0  0
 37 33  1  0  0  0
 31 38  1  0  0  0
M  CHG 1  31   1
M  END
> <minimizedAffinity>
-8.21671

> <CNNscore>
0.1674332619

> <CNNaffinity>
6.1919736862

> <CNN_VS>
1.0367423296

> <CNNaffinity_variance>
0.2268306762

$$$$



 38 44  0  0  0  0  0  0  0  0999 V2000
  -10.8813    2.5890  -23.7835 C   0  0  0  0  0  0  0  0  0  0  0  0
   -9.5903    1.8370  -23.6501 C   0  0  0  0  0  0  0  0  0  0  0  0
   -8.3987    2.7380  -23.7851 C   0  0  0  0  0  0  0  0  0  0  0  0
   -7.1640    1.8989  -23.6381 N   0  0  0  0  0  0  0  0  0  0  0  0
   -7.5926    0.4793  -23.4122 C   0  0  0  0  0  0  0  0  0  0  0  0
   -6.6816   -0.6957  -23.2138 O   0  0  0  0  0  0  0  0  0  0  0  0
   -9.0921    0.4410  -23.4196 C   0  0  0  0  0  0  0  0  0  0  0  0
   -8.4488   -0.8957  -23.1975 C   0  0  0  0  0  0  0  0  0  0  0  0
   -9.3006   -2.1157  -23.0077 N   0  0  0  0  0  0  0  0  0  0  0  0
  -10.7957   -1.9990  -23.0401 C   0  0  0  0  0  0  0  0  0  0  0  0
  -11.6475   -3.2191  -22.8504 O   0  0  0  0  0  0  0  0  0  0  0  0
  -11.4391   -0.6623  -23.2623 C   0  0  0  0  0  0  0  0  0  0  0  0
  -12.9341   -0.5457  -23.2948 C   0  0  0  0  0  0  0  0  0  0  0  0
  -13.5774    0.7910  -23.5169 C   0  0  0  0  0  0  0  0  0  0  0  0
  -12.7257    2.0111  -23.7067 C   0  0  0  0  0  0  0  0  0  0  0  0
  -13.3690    3.3478  -23.9289 Cl  0  0  0  0  0  0  0  0  0  0  0  0
  -11.2306    1.8944  -23.6742 C   0  0  0  0  0  0  0  0  0  0  0  0
  -10.5873    0.5577  -23.4521 C   0  0  0  0  0  0  0  0  0  0  0  0
   -5.7492    2.3927  -23.7052 C   0  0  0  0  0  0  0  0  0  0  0  0
   -4.6701    1.5048  -24.2500 C   0  0  0  0  0  0  0  0  0  0  0  0
   -3.2553    1.9986  -24.3171 N   0  0  0  0  0  0  0  0  0  0  0  0
   -2.9197    3.3803  -23.8394 C   0  0  0  0  0  0  0  0  0  0  0  0
   -3.9990    4.2682  -23.2946 C   0  0  0  0  0  0  0  0  0  0  0  0
   -3.6634    5.6500  -22.8169 C   0  0  0  0  0  0  0  0  0  0  0  0
   -4.7427    6.5379  -22.2721 C   0  0  0  0  0  0  0  0  0  0  0  0
   -6.1574    6.0441  -22.2050 C   0  0  0  0  0  0  0  0  0  0  0  0
   -6.4930    4.6624  -22.6827 C   0  0  0  0  0  0  0  0  0  0  0  0
   -5.4138    3.7745  -23.2275 C   0  0  0  0  0  0  0  0  0  0  0  0
   -8.6572   -3.4524  -22.7855 C   0  0  0  0  0  0  0  0  0  0  0  0
   -8.2984   -4.3163  -23.9581 C   0  0  0  0  0  0  0  0  0  0  0  0
   -7.2673   -5.3951  -23.8071 N   0  0  0  0  0  0  0  0  0  0  0  0
   -7.3182   -6.5330  -22.8311 C   0  0  0  0  0  0  0  0  0  0  0  0
   -6.0866   -7.3666  -23.0264 C   0  0  0  0  0  0  0  0  0  0  0  0
   -6.8164   -6.1482  -23.5089 C   0  0  0  0  0  0  0  0  0  0  0  0
   -6.0043   -5.5256  -24.6057 C   0  0  0  0  0  0  0  0  0  0  0  0
   -4.7727   -6.3592  -24.8010 C   0  0  0  0  0  0  0  0  0  0  0  0
   -4.8236   -7.4971  -23.8250 O   0  0  0  0  0  0  0  0  0  0  0  0
   -8.0777   -5.4393  -23.1892 H   0  0  0  0  0  0  0  0  0  0  0  0
  2  1  1  0  0  0
  2  3  1  0  0  0
  3  4  1  0  0  0
  4 19  1  0  0  0
 19 20  2  0  0  0
 20 21  1  0  0  0
 21 22  2  0  0  0
 22 23  1  0  0  0
 23 24  2  0  0  0
 24 25  1  0  0  0
 25 26  2  0  0  0
 26 27  1  0  0  0
 27 28  2  0  0  0
  4  5  1  0  0  0
  5  6  2  0  0  0
  5  7  1  0  0  0
  7  8  1  0  0  0
  8  9  1  0  0  0
  9 29  1  0  0  0
 29 30  1  0  0  0
 31 30  1  0  0  0
 31 32  1  0  0  0
 33 32  1  0  0  0
 33 34  1  0  0  0
 34 35  1  0  0  0
 35 36  1  0  0  0
 36 37  1  0  0  0
  9 10  1  0  0  0
 10 11  2  0  0  0
 10 12  1  0  0  0
 12 13  2  0  0  0
 13 14  1  0  0  0
 14 15  2  0  0  0
 15 16  1  0  0  0
 15 17  1  0  0  0
 17 18  2  0  0  0
  7  2  1  0  0  0
 35 31  1  0  0  0
 18 12  1  0  0  0
 28 19  1  0  0  0
 18  7  1  0  0  0
 28 23  1  0  0  0
 37 33  1  0  0  0
 31 38  1  0  0  0
M  CHG 1  31   1
M  END
> <minimizedAffinity>
-7.71267

> <CNNscore>
0.1593431383

> <CNNaffinity>
6.2172126770

> <CNN_VS>
0.9906702042

> <CNNaffinity_variance>
0.1216596216

$$$$
