


 34 38  0  0  0  0  0  0  0  0999 V2000
   10.7169    1.5940   22.8540 N   0  0  0  0  0  0  0  0  0  0  0  0
    9.3270    1.3137   23.3433 C   0  0  0  0  0  0  0  0  0  0  0  0
    9.0767    0.1631   24.2724 C   0  0  0  0  0  0  0  0  0  0  0  0
    8.6751   -0.9456   25.1994 C   0  0  0  0  0  0  0  0  0  0  0  0
    9.1685   -1.8727   25.8105 O   0  0  0  0  0  0  0  0  0  0  0  0
    7.1944   -0.8516   25.4206 N   0  0  0  0  0  0  0  0  0  0  0  0
    6.6809    0.3152   24.6302 C   0  0  0  0  0  0  0  0  0  0  0  0
    7.8442    0.9424   23.9206 C   0  0  0  0  0  0  0  0  0  0  0  0
    7.7853    2.1387   23.0177 C   0  0  0  0  0  0  0  0  0  0  0  0
   10.2164   -0.7074   24.7123 C   0  0  0  0  0  0  0  0  0  0  0  0
    9.9661   -1.8580   25.6414 C   0  0  0  0  0  0  0  0  0  0  0  0
   11.1058   -2.7284   26.0812 C   0  0  0  0  0  0  0  0  0  0  0  0
   10.8556   -3.8791   27.0104 Cl  0  0  0  0  0  0  0  0  0  0  0  0
   12.4958   -2.4481   25.5919 C   0  0  0  0  0  0  0  0  0  0  0  0
   12.7461   -1.2975   24.6628 C   0  0  0  0  0  0  0  0  0  0  0  0
   11.6064   -0.4271   24.2230 C   0  0  0  0  0  0  0  0  0  0  0  0
   11.8566    0.7236   23.2938 C   0  0  0  0  0  0  0  0  0  0  0  0
   13.2466    1.0039   22.8045 O   0  0  0  0  0  0  0  0  0  0  0  0
    6.3718   -1.7642   26.2810 C   0  0  0  0  0  0  0  0  0  0  0  0
    6.1505   -3.1887   25.8662 C   0  0  0  0  0  0  0  0  0  0  0  0
    5.3279   -4.1013   26.7266 N   0  0  0  0  0  0  0  0  0  0  0  0
    4.7265   -3.5895   28.0019 C   0  0  0  0  0  0  0  0  0  0  0  0
    4.9478   -2.1651   28.4167 C   0  0  0  0  0  0  0  0  0  0  0  0
    4.3463   -1.6533   29.6921 C   0  0  0  0  0  0  0  0  0  0  0  0
    4.5676   -0.2288   30.1068 C   0  0  0  0  0  0  0  0  0  0  0  0
    5.3903    0.6838   29.2464 C   0  0  0  0  0  0  0  0  0  0  0  0
    5.9917    0.1720   27.9711 C   0  0  0  0  0  0  0  0  0  0  0  0
    5.7704   -1.2524   27.5563 C   0  0  0  0  0  0  0  0  0  0  0  0
   10.9672    2.7447   21.9248 C   0  0  0  0  0  0  0  0  0  0  0  0
   10.6662    6.4009   23.4386 C   0  0  0  0  0  0  0  0  0  0  0  0
   10.2842    5.0599   22.8857 N   0  0  0  0  0  0  0  0  0  0  0  0
   11.3493    4.0857   22.4777 C   0  0  0  0  0  0  0  0  0  0  0  0
   12.7965    4.4526   22.6226 O   0  0  0  0  0  0  0  0  0  0  0  0
    9.3343    4.8192   22.7906 H   0  0  0  0  0  0  0  0  0  0  0  0
 30 31  1  0  0  0
 31 32  1  0  0  0
 32 33  2  0  0  0
 32 29  1  0  0  0
 29  1  1  0  0  0
  1  2  1  0  0  0
  3  2  1  0  0  0
  3  4  1  0  0  0
  4  5  2  0  0  0
  4  6  1  0  0  0
  6 19  1  0  0  0
 19 20  2  0  0  0
 20 21  1  0  0  0
 21 22  2  0  0  0
 22 23  1  0  0  0
 23 24  2  0  0  0
 24 25  1  0  0  0
 25 26  2  0  0  0
 26 27  1  0  0  0
 27 28  2  0  0  0
  6  7  1  0  0  0
  7  8  1  0  0  0
  8  9  1  0  0  0
  3 10  1  0  0  0
 10 11  2  0  0  0
 11 12  1  0  0  0
 12 13  1  0  0  0
 12 14  2  0  0  0
 14 15  1  0  0  0
 15 16  2  0  0  0
 16 17  1  0  0  0
 17 18  2  0  0  0
 17  1  1  0  0  0
  8  3  1  0  0  0
 16 10  1  0  0  0
 28 19  1  0  0  0
 28 23  1  0  0  0
 31 34  1  0  0  0
M  END
> <minimizedAffinity>
-7.92379

> <CNNscore>
0.4842267931

> <CNNaffinity>
6.5786156654

> <CNN_VS>
3.1855418682

> <CNNaffinity_variance>
0.2493602335

$$$$



 34 38  0  0  0  0  0  0  0  0999 V2000
   10.2494    4.0047   22.7342 N   0  0  0  0  0  0  0  0  0  0  0  0
    8.9383    3.3531   23.0604 C   0  0  0  0  0  0  0  0  0  0  0  0
    8.8910    1.8939   23.4046 C   0  0  0  0  0  0  0  0  0  0  0  0
    8.6887    0.4521   23.7655 C   0  0  0  0  0  0  0  0  0  0  0  0
    9.3304   -0.5687   23.9160 O   0  0  0  0  0  0  0  0  0  0  0  0
    7.2247    0.2368   24.0111 N   0  0  0  0  0  0  0  0  0  0  0  0
    6.5222    1.5455   23.8020 C   0  0  0  0  0  0  0  0  0  0  0  0
    7.5521    2.5697   23.4271 C   0  0  0  0  0  0  0  0  0  0  0  0
    7.2891    4.0157   23.1275 C   0  0  0  0  0  0  0  0  0  0  0  0
   10.1550    1.0863   23.4226 C   0  0  0  0  0  0  0  0  0  0  0  0
   10.1078   -0.3729   23.7667 C   0  0  0  0  0  0  0  0  0  0  0  0
   11.3717   -1.1805   23.7847 C   0  0  0  0  0  0  0  0  0  0  0  0
   11.3245   -2.6398   24.1289 Cl  0  0  0  0  0  0  0  0  0  0  0  0
   12.6828   -0.5289   23.4586 C   0  0  0  0  0  0  0  0  0  0  0  0
   12.7300    0.9303   23.1144 C   0  0  0  0  0  0  0  0  0  0  0  0
   11.4661    1.7379   23.0964 C   0  0  0  0  0  0  0  0  0  0  0  0
   11.5133    3.1971   22.7522 C   0  0  0  0  0  0  0  0  0  0  0  0
   12.8244    3.8488   22.4260 O   0  0  0  0  0  0  0  0  0  0  0  0
    6.5769   -1.0597   24.3979 C   0  0  0  0  0  0  0  0  0  0  0  0
    6.4325   -2.1573   23.3857 C   0  0  0  0  0  0  0  0  0  0  0  0
    5.7847   -3.4537   23.7725 N   0  0  0  0  0  0  0  0  0  0  0  0
    5.2814   -3.6526   25.1714 C   0  0  0  0  0  0  0  0  0  0  0  0
    5.4258   -2.5550   26.1836 C   0  0  0  0  0  0  0  0  0  0  0  0
    4.9225   -2.7539   27.5826 C   0  0  0  0  0  0  0  0  0  0  0  0
    5.0670   -1.6562   28.5947 C   0  0  0  0  0  0  0  0  0  0  0  0
    5.7147   -0.3598   28.2079 C   0  0  0  0  0  0  0  0  0  0  0  0
    6.2180   -0.1609   26.8090 C   0  0  0  0  0  0  0  0  0  0  0  0
    6.0736   -1.2585   25.7968 C   0  0  0  0  0  0  0  0  0  0  0  0
   10.2965    5.4640   22.3900 C   0  0  0  0  0  0  0  0  0  0  0  0
   10.7831    7.8221   25.5448 C   0  0  0  0  0  0  0  0  0  0  0  0
   11.0579    6.7931   24.4885 N   0  0  0  0  0  0  0  0  0  0  0  0
   10.0217    6.4929   23.4463 C   0  0  0  0  0  0  0  0  0  0  0  0
    8.7107    7.2217   23.4604 O   0  0  0  0  0  0  0  0  0  0  0  0
   11.9184    6.3148   24.4792 H   0  0  0  0  0  0  0  0  0  0  0  0
 30 31  1  0  0  0
 31 32  1  0  0  0
 32 33  2  0  0  0
 32 29  1  0  0  0
 29  1  1  0  0  0
  1  2  1  0  0  0
  3  2  1  0  0  0
  3  4  1  0  0  0
  4  5  2  0  0  0
  4  6  1  0  0  0
  6 19  1  0  0  0
 19 20  2  0  0  0
 20 21  1  0  0  0
 21 22  2  0  0  0
 22 23  1  0  0  0
 23 24  2  0  0  0
 24 25  1  0  0  0
 25 26  2  0  0  0
 26 27  1  0  0  0
 27 28  2  0  0  0
  6  7  1  0  0  0
  7  8  1  0  0  0
  8  9  1  0  0  0
  3 10  1  0  0  0
 10 11  2  0  0  0
 11 12  1  0  0  0
 12 13  1  0  0  0
 12 14  2  0  0  0
 14 15  1  0  0  0
 15 16  2  0  0  0
 16 17  1  0  0  0
 17 18  2  0  0  0
 17  1  1  0  0  0
  8  3  1  0  0  0
 16 10  1  0  0  0
 28 19  1  0  0  0
 28 23  1  0  0  0
 31 34  1  0  0  0
M  END
> <minimizedAffinity>
-7.16967

> <CNNscore>
0.4302096665

> <CNNaffinity>
6.5325446129

> <CNN_VS>
2.8103637695

> <CNNaffinity_variance>
0.6064559221

$$$$



 34 38  0  0  0  0  0  0  0  0999 V2000
   10.4395    0.6534   23.7386 N   0  0  0  0  0  0  0  0  0  0  0  0
    9.0542    0.2826   24.1784 C   0  0  0  0  0  0  0  0  0  0  0  0
    8.8415   -0.9139   25.0577 C   0  0  0  0  0  0  0  0  0  0  0  0
    8.4756   -2.0763   25.9323 C   0  0  0  0  0  0  0  0  0  0  0  0
    9.0017   -2.9988   26.5227 O   0  0  0  0  0  0  0  0  0  0  0  0
    6.9868   -2.0682   26.1153 N   0  0  0  0  0  0  0  0  0  0  0  0
    6.4326   -0.9007   25.3539 C   0  0  0  0  0  0  0  0  0  0  0  0
    7.5788   -0.1873   24.7003 C   0  0  0  0  0  0  0  0  0  0  0  0
    7.4797    1.0376   23.8402 C   0  0  0  0  0  0  0  0  0  0  0  0
   10.0142   -1.7396   25.4973 C   0  0  0  0  0  0  0  0  0  0  0  0
    9.8015   -2.9361   26.3766 C   0  0  0  0  0  0  0  0  0  0  0  0
   10.9741   -3.7617   26.8160 C   0  0  0  0  0  0  0  0  0  0  0  0
   10.7615   -4.9582   27.6954 Cl  0  0  0  0  0  0  0  0  0  0  0  0
   12.3594   -3.3909   26.3762 C   0  0  0  0  0  0  0  0  0  0  0  0
   12.5721   -2.1945   25.4969 C   0  0  0  0  0  0  0  0  0  0  0  0
   11.3995   -1.3688   25.0574 C   0  0  0  0  0  0  0  0  0  0  0  0
   11.6121   -0.1723   24.1781 C   0  0  0  0  0  0  0  0  0  0  0  0
   12.9974    0.1985   23.7382 O   0  0  0  0  0  0  0  0  0  0  0  0
    6.1919   -3.0545   26.9187 C   0  0  0  0  0  0  0  0  0  0  0  0
    6.1123   -2.9160   28.4102 C   0  0  0  0  0  0  0  0  0  0  0  0
    5.3173   -3.9023   29.2136 N   0  0  0  0  0  0  0  0  0  0  0  0
    4.6021   -5.0269   28.5255 C   0  0  0  0  0  0  0  0  0  0  0  0
    4.6818   -5.1654   27.0340 C   0  0  0  0  0  0  0  0  0  0  0  0
    3.9664   -6.2901   26.3459 C   0  0  0  0  0  0  0  0  0  0  0  0
    4.0462   -6.4285   24.8544 C   0  0  0  0  0  0  0  0  0  0  0  0
    4.8411   -5.4422   24.0510 C   0  0  0  0  0  0  0  0  0  0  0  0
    5.5563   -4.3176   24.7391 C   0  0  0  0  0  0  0  0  0  0  0  0
    5.4767   -4.1791   26.2306 C   0  0  0  0  0  0  0  0  0  0  0  0
   10.6521    1.8499   22.8593 C   0  0  0  0  0  0  0  0  0  0  0  0
    8.0571    4.8416   23.1159 C   0  0  0  0  0  0  0  0  0  0  0  0
    9.2056    3.9304   23.4331 N   0  0  0  0  0  0  0  0  0  0  0  0
    9.5036    2.7611   22.5420 C   0  0  0  0  0  0  0  0  0  0  0  0
    8.6530    2.5030   21.3337 O   0  0  0  0  0  0  0  0  0  0  0  0
    9.7638    4.0998   24.2261 H   0  0  0  0  0  0  0  0  0  0  0  0
 30 31  1  0  0  0
 31 32  1  0  0  0
 32 33  2  0  0  0
 32 29  1  0  0  0
 29  1  1  0  0  0
  1  2  1  0  0  0
  3  2  1  0  0  0
  3  4  1  0  0  0
  4  5  2  0  0  0
  4  6  1  0  0  0
  6 19  1  0  0  0
 19 20  2  0  0  0
 20 21  1  0  0  0
 21 22  2  0  0  0
 22 23  1  0  0  0
 23 24  2  0  0  0
 24 25  1  0  0  0
 25 26  2  0  0  0
 26 27  1  0  0  0
 27 28  2  0  0  0
  6  7  1  0  0  0
  7  8  1  0  0  0
  8  9  1  0  0  0
  3 10  1  0  0  0
 10 11  2  0  0  0
 11 12  1  0  0  0
 12 13  1  0  0  0
 12 14  2  0  0  0
 14 15  1  0  0  0
 15 16  2  0  0  0
 16 17  1  0  0  0
 17 18  2  0  0  0
 17  1  1  0  0  0
  8  3  1  0  0  0
 16 10  1  0  0  0
 28 19  1  0  0  0
 28 23  1  0  0  0
 31 34  1  0  0  0
M  END
> <minimizedAffinity>
-8.12756

> <CNNscore>
0.4045993388

> <CNNaffinity>
6.4275550842

> <CNN_VS>
2.6005845070

> <CNNaffinity_variance>
0.2219932973

$$$$



 34 38  0  0  0  0  0  0  0  0999 V2000
   10.0736    0.6902   23.1307 N   0  0  0  0  0  0  0  0  0  0  0  0
    8.7097    0.1036   23.3444 C   0  0  0  0  0  0  0  0  0  0  0  0
    8.5325   -1.0669   24.2655 C   0  0  0  0  0  0  0  0  0  0  0  0
    8.2024   -2.2312   25.1517 C   0  0  0  0  0  0  0  0  0  0  0  0
    8.7505   -3.0166   25.8994 O   0  0  0  0  0  0  0  0  0  0  0  0
    6.7251   -2.4760   25.0644 N   0  0  0  0  0  0  0  0  0  0  0  0
    6.1422   -1.4630   24.1242 C   0  0  0  0  0  0  0  0  0  0  0  0
    7.2592   -0.5922   23.6304 C   0  0  0  0  0  0  0  0  0  0  0  0
    7.1263    0.5525   22.6702 C   0  0  0  0  0  0  0  0  0  0  0  0
    9.7194   -1.6509   24.9729 C   0  0  0  0  0  0  0  0  0  0  0  0
    9.5422   -2.8215   25.8940 C   0  0  0  0  0  0  0  0  0  0  0  0
   10.7290   -3.4054   26.6014 C   0  0  0  0  0  0  0  0  0  0  0  0
   10.5519   -4.5760   27.5226 Cl  0  0  0  0  0  0  0  0  0  0  0  0
   12.0929   -2.8189   26.3877 C   0  0  0  0  0  0  0  0  0  0  0  0
   12.2701   -1.6484   25.4666 C   0  0  0  0  0  0  0  0  0  0  0  0
   11.0833   -1.0644   24.7592 C   0  0  0  0  0  0  0  0  0  0  0  0
   11.2604    0.1062   23.8381 C   0  0  0  0  0  0  0  0  0  0  0  0
   12.6243    0.6927   23.6244 O   0  0  0  0  0  0  0  0  0  0  0  0
    5.9643   -3.5459   25.7900 C   0  0  0  0  0  0  0  0  0  0  0  0
    5.5915   -4.8137   25.0802 C   0  0  0  0  0  0  0  0  0  0  0  0
    4.8307   -5.8836   25.8057 N   0  0  0  0  0  0  0  0  0  0  0  0
    4.4428   -5.6858   27.2411 C   0  0  0  0  0  0  0  0  0  0  0  0
    4.8156   -4.4181   27.9509 C   0  0  0  0  0  0  0  0  0  0  0  0
    4.4276   -4.2203   29.3864 C   0  0  0  0  0  0  0  0  0  0  0  0
    4.8004   -2.9525   30.0961 C   0  0  0  0  0  0  0  0  0  0  0  0
    5.5612   -1.8825   29.3706 C   0  0  0  0  0  0  0  0  0  0  0  0
    5.9492   -2.0804   27.9352 C   0  0  0  0  0  0  0  0  0  0  0  0
    5.5764   -3.3481   27.2254 C   0  0  0  0  0  0  0  0  0  0  0  0
   10.2507    1.8607   22.2095 C   0  0  0  0  0  0  0  0  0  0  0  0
   10.7320    5.7204   22.9978 C   0  0  0  0  0  0  0  0  0  0  0  0
   11.0028    4.3300   22.5043 N   0  0  0  0  0  0  0  0  0  0  0  0
    9.9799    3.2511   22.7030 C   0  0  0  0  0  0  0  0  0  0  0  0
    8.6861    3.5625   23.3953 O   0  0  0  0  0  0  0  0  0  0  0  0
   11.8520    4.1256   22.0500 H   0  0  0  0  0  0  0  0  0  0  0  0
 30 31  1  0  0  0
 31 32  1  0  0  0
 32 33  2  0  0  0
 32 29  1  0  0  0
 29  1  1  0  0  0
  1  2  1  0  0  0
  3  2  1  0  0  0
  3  4  1  0  0  0
  4  5  2  0  0  0
  4  6  1  0  0  0
  6 19  1  0  0  0
 19 20  2  0  0  0
 20 21  1  0  0  0
 21 22  2  0  0  0
 22 23  1  0  0  0
 23 24  2  0  0  0
 24 25  1  0  0  0
 25 26  2  0  0  0
 26 27  1  0  0  0
 27 28  2  0  0  0
  6  7  1  0  0  0
  7  8  1  0  0  0
  8  9  1  0  0  0
  3 10  1  0  0  0
 10 11  2  0  0  0
 11 12  1  0  0  0
 12 13  1  0  0  0
 12 14  2  0  0  0
 14 15  1  0  0  0
 15 16  2  0  0  0
 16 17  1  0  0  0
 17 18  2  0  0  0
 17  1  1  0  0  0
  8  3  1  0  0  0
 16 10  1  0  0  0
 28 19  1  0  0  0
 28 23  1  0  0  0
 31 34  1  0  0  0
M  END
> <minimizedAffinity>
-7.61649

> <CNNscore>
0.3957368135

> <CNNaffinity>
6.4331693649

> <CNN_VS>
2.5458419323

> <CNNaffinity_variance>
0.1804238260

$$$$



 34 38  0  0  0  0  0  0  0  0999 V2000
    8.5606    4.5328   23.3762 N   0  0  0  0  0  0  0  0  0  0  0  0
    7.7831    3.2981   23.7242 C   0  0  0  0  0  0  0  0  0  0  0  0
    8.4466    1.9539   23.6701 C   0  0  0  0  0  0  0  0  0  0  0  0
    8.9725    0.5492   23.6615 C   0  0  0  0  0  0  0  0  0  0  0  0
    9.9982   -0.0593   23.4290 O   0  0  0  0  0  0  0  0  0  0  0  0
    7.8577   -0.3657   24.0738 N   0  0  0  0  0  0  0  0  0  0  0  0
    6.6427    0.4735   24.3373 C   0  0  0  0  0  0  0  0  0  0  0  0
    7.0067    1.9072   24.0877 C   0  0  0  0  0  0  0  0  0  0  0  0
    6.0914    3.0869   24.2307 C   0  0  0  0  0  0  0  0  0  0  0  0
    9.8876    1.8444   23.2679 C   0  0  0  0  0  0  0  0  0  0  0  0
   10.5511    0.5002   23.2138 C   0  0  0  0  0  0  0  0  0  0  0  0
   11.9920    0.3908   22.8117 C   0  0  0  0  0  0  0  0  0  0  0  0
   12.6555   -0.9535   22.7575 Cl  0  0  0  0  0  0  0  0  0  0  0  0
   12.7694    1.6254   22.4637 C   0  0  0  0  0  0  0  0  0  0  0  0
   12.1060    2.9696   22.5178 C   0  0  0  0  0  0  0  0  0  0  0  0
   10.6650    3.0791   22.9199 C   0  0  0  0  0  0  0  0  0  0  0  0
   10.0015    4.4233   22.9741 C   0  0  0  0  0  0  0  0  0  0  0  0
   10.7790    5.6580   22.6261 O   0  0  0  0  0  0  0  0  0  0  0  0
    7.9429   -1.8579   24.2005 C   0  0  0  0  0  0  0  0  0  0  0  0
    6.9358   -2.7281   23.5087 C   0  0  0  0  0  0  0  0  0  0  0  0
    7.0210   -4.2203   23.6354 N   0  0  0  0  0  0  0  0  0  0  0  0
    8.1133   -4.8424   24.4539 C   0  0  0  0  0  0  0  0  0  0  0  0
    9.1204   -3.9722   25.1457 C   0  0  0  0  0  0  0  0  0  0  0  0
   10.2128   -4.5943   25.9642 C   0  0  0  0  0  0  0  0  0  0  0  0
   11.2198   -3.7240   26.6560 C   0  0  0  0  0  0  0  0  0  0  0  0
   11.1346   -2.2318   26.5293 C   0  0  0  0  0  0  0  0  0  0  0  0
   10.0423   -1.6098   25.7108 C   0  0  0  0  0  0  0  0  0  0  0  0
    9.0352   -2.4800   25.0190 C   0  0  0  0  0  0  0  0  0  0  0  0
    7.8971    5.8770   23.4304 C   0  0  0  0  0  0  0  0  0  0  0  0
    7.9592    7.2365   27.1583 C   0  0  0  0  0  0  0  0  0  0  0  0
    8.4227    6.6813   25.8442 N   0  0  0  0  0  0  0  0  0  0  0  0
    7.4335    6.4322   24.7445 C   0  0  0  0  0  0  0  0  0  0  0  0
    5.9808    6.7382   24.9588 O   0  0  0  0  0  0  0  0  0  0  0  0
    9.3762    6.4805   25.7035 H   0  0  0  0  0  0  0  0  0  0  0  0
 30 31  1  0  0  0
 31 32  1  0  0  0
 32 33  2  0  0  0
 32 29  1  0  0  0
 29  1  1  0  0  0
  1  2  1  0  0  0
  3  2  1  0  0  0
  3  4  1  0  0  0
  4  5  2  0  0  0
  4  6  1  0  0  0
  6 19  1  0  0  0
 19 20  2  0  0  0
 20 21  1  0  0  0
 21 22  2  0  0  0
 22 23  1  0  0  0
 23 24  2  0  0  0
 24 25  1  0  0  0
 25 26  2  0  0  0
 26 27  1  0  0  0
 27 28  2  0  0  0
  6  7  1  0  0  0
  7  8  1  0  0  0
  8  9  1  0  0  0
  3 10  1  0  0  0
 10 11  2  0  0  0
 11 12  1  0  0  0
 12 13  1  0  0  0
 12 14  2  0  0  0
 14 15  1  0  0  0
 15 16  2  0  0  0
 16 17  1  0  0  0
 17 18  2  0  0  0
 17  1  1  0  0  0
  8  3  1  0  0  0
 16 10  1  0  0  0
 28 19  1  0  0  0
 28 23  1  0  0  0
 31 34  1  0  0  0
M  END
> <minimizedAffinity>
-7.44343

> <CNNscore>
0.3719393611

> <CNNaffinity>
6.3255653381

> <CNN_VS>
2.3527266979

> <CNNaffinity_variance>
0.2082065344

$$$$



 34 38  0  0  0  0  0  0  0  0999 V2000
    9.2651    4.7822   23.2701 N   0  0  0  0  0  0  0  0  0  0  0  0
    8.2438    3.6925   23.4102 C   0  0  0  0  0  0  0  0  0  0  0  0
    8.6587    2.2559   23.2911 C   0  0  0  0  0  0  0  0  0  0  0  0
    8.9231    0.7824   23.1969 C   0  0  0  0  0  0  0  0  0  0  0  0
    9.8443    0.0119   23.0125 O   0  0  0  0  0  0  0  0  0  0  0  0
    7.6215    0.0642   23.3975 N   0  0  0  0  0  0  0  0  0  0  0  0
    6.5528    1.0938   23.6158 C   0  0  0  0  0  0  0  0  0  0  0  0
    7.1938    2.4484   23.5501 C   0  0  0  0  0  0  0  0  0  0  0  0
    6.4930    3.7644   23.7144 C   0  0  0  0  0  0  0  0  0  0  0  0
   10.0949    1.9091   23.0320 C   0  0  0  0  0  0  0  0  0  0  0  0
   10.5098    0.4725   22.9130 C   0  0  0  0  0  0  0  0  0  0  0  0
   11.9460    0.1257   22.6540 C   0  0  0  0  0  0  0  0  0  0  0  0
   12.3610   -1.3109   22.5349 Cl  0  0  0  0  0  0  0  0  0  0  0  0
   12.9672    1.2154   22.5139 C   0  0  0  0  0  0  0  0  0  0  0  0
   12.5523    2.6519   22.6329 C   0  0  0  0  0  0  0  0  0  0  0  0
   11.1162    2.9988   22.8920 C   0  0  0  0  0  0  0  0  0  0  0  0
   10.7012    4.4353   23.0110 C   0  0  0  0  0  0  0  0  0  0  0  0
   11.7224    5.5251   22.8710 O   0  0  0  0  0  0  0  0  0  0  0  0
    7.4236   -1.4226   23.3825 C   0  0  0  0  0  0  0  0  0  0  0  0
    6.4505   -2.0400   22.4223 C   0  0  0  0  0  0  0  0  0  0  0  0
    6.2526   -3.5268   22.4072 N   0  0  0  0  0  0  0  0  0  0  0  0
    7.0276   -4.3962   23.3525 C   0  0  0  0  0  0  0  0  0  0  0  0
    8.0006   -3.7788   24.3127 C   0  0  0  0  0  0  0  0  0  0  0  0
    8.7757   -4.6482   25.2580 C   0  0  0  0  0  0  0  0  0  0  0  0
    9.7487   -4.0307   26.2182 C   0  0  0  0  0  0  0  0  0  0  0  0
    9.9467   -2.5439   26.2332 C   0  0  0  0  0  0  0  0  0  0  0  0
    9.1716   -1.6745   25.2880 C   0  0  0  0  0  0  0  0  0  0  0  0
    8.1986   -2.2920   24.3277 C   0  0  0  0  0  0  0  0  0  0  0  0
    8.8501    6.2188   23.3891 C   0  0  0  0  0  0  0  0  0  0  0  0
    5.8583    7.1298   20.9459 C   0  0  0  0  0  0  0  0  0  0  0  0
    7.2097    6.6968   21.4319 N   0  0  0  0  0  0  0  0  0  0  0  0
    7.4987    6.6518   22.9031 C   0  0  0  0  0  0  0  0  0  0  0  0
    6.4362    7.0397   23.8884 O   0  0  0  0  0  0  0  0  0  0  0  0
    7.9071    6.4422   20.7853 H   0  0  0  0  0  0  0  0  0  0  0  0
 30 31  1  0  0  0
 31 32  1  0  0  0
 32 33  2  0  0  0
 32 29  1  0  0  0
 29  1  1  0  0  0
  1  2  1  0  0  0
  3  2  1  0  0  0
  3  4  1  0  0  0
  4  5  2  0  0  0
  4  6  1  0  0  0
  6 19  1  0  0  0
 19 20  2  0  0  0
 20 21  1  0  0  0
 21 22  2  0  0  0
 22 23  1  0  0  0
 23 24  2  0  0  0
 24 25  1  0  0  0
 25 26  2  0  0  0
 26 27  1  0  0  0
 27 28  2  0  0  0
  6  7  1  0  0  0
  7  8  1  0  0  0
  8  9  1  0  0  0
  3 10  1  0  0  0
 10 11  2  0  0  0
 11 12  1  0  0  0
 12 13  1  0  0  0
 12 14  2  0  0  0
 14 15  1  0  0  0
 15 16  2  0  0  0
 16 17  1  0  0  0
 17 18  2  0  0  0
 17  1  1  0  0  0
  8  3  1  0  0  0
 16 10  1  0  0  0
 28 19  1  0  0  0
 28 23  1  0  0  0
 31 34  1  0  0  0
M  END
> <minimizedAffinity>
-7.29777

> <CNNscore>
0.3495132029

> <CNNaffinity>
6.4655618668

> <CNN_VS>
2.2597992420

> <CNNaffinity_variance>
0.1884956658

$$$$



 34 38  0  0  0  0  0  0  0  0999 V2000
    4.9417    1.4722   21.6716 N   0  0  0  0  0  0  0  0  0  0  0  0
    5.8324    0.2821   21.8725 C   0  0  0  0  0  0  0  0  0  0  0  0
    7.2605    0.4759   22.2885 C   0  0  0  0  0  0  0  0  0  0  0  0
    8.7020    0.5132   22.7013 C   0  0  0  0  0  0  0  0  0  0  0  0
    9.5687    1.3164   22.9843 O   0  0  0  0  0  0  0  0  0  0  0  0
    9.1985   -0.9001   22.7799 N   0  0  0  0  0  0  0  0  0  0  0  0
    8.0638   -1.8109   22.4156 C   0  0  0  0  0  0  0  0  0  0  0  0
    6.8660   -0.9605   22.1119 C   0  0  0  0  0  0  0  0  0  0  0  0
    5.5115   -1.4590   21.7033 C   0  0  0  0  0  0  0  0  0  0  0  0
    7.7979    1.8598   22.5035 C   0  0  0  0  0  0  0  0  0  0  0  0
    9.2259    2.0535   22.9194 C   0  0  0  0  0  0  0  0  0  0  0  0
    9.7633    3.4373   23.1344 C   0  0  0  0  0  0  0  0  0  0  0  0
   11.1914    3.6311   23.5504 Cl  0  0  0  0  0  0  0  0  0  0  0  0
    8.8726    4.6274   22.9335 C   0  0  0  0  0  0  0  0  0  0  0  0
    7.4445    4.4336   22.5175 C   0  0  0  0  0  0  0  0  0  0  0  0
    6.9072    3.0498   22.3025 C   0  0  0  0  0  0  0  0  0  0  0  0
    5.4790    2.8560   21.8865 C   0  0  0  0  0  0  0  0  0  0  0  0
    4.5883    4.0461   21.6856 O   0  0  0  0  0  0  0  0  0  0  0  0
   10.5861   -1.3274   23.1566 C   0  0  0  0  0  0  0  0  0  0  0  0
   11.7426   -0.9942   22.2612 C   0  0  0  0  0  0  0  0  0  0  0  0
   13.1302   -1.4216   22.6379 N   0  0  0  0  0  0  0  0  0  0  0  0
   13.3613   -2.1822   23.9100 C   0  0  0  0  0  0  0  0  0  0  0  0
   12.2048   -2.5154   24.8053 C   0  0  0  0  0  0  0  0  0  0  0  0
   12.4360   -3.2760   26.0774 C   0  0  0  0  0  0  0  0  0  0  0  0
   11.2795   -3.6091   26.9727 C   0  0  0  0  0  0  0  0  0  0  0  0
    9.8919   -3.1818   26.5960 C   0  0  0  0  0  0  0  0  0  0  0  0
    9.6608   -2.4212   25.3239 C   0  0  0  0  0  0  0  0  0  0  0  0
   10.8172   -2.0880   24.4286 C   0  0  0  0  0  0  0  0  0  0  0  0
    3.5136    1.2784   21.2556 C   0  0  0  0  0  0  0  0  0  0  0  0
    1.3359    4.1030   19.5151 C   0  0  0  0  0  0  0  0  0  0  0  0
    1.9341    3.2255   20.5744 N   0  0  0  0  0  0  0  0  0  0  0  0
    2.9153    2.1558   20.1963 C   0  0  0  0  0  0  0  0  0  0  0  0
    3.2983    1.9635   18.7587 O   0  0  0  0  0  0  0  0  0  0  0  0
    1.6828    3.3517   21.5179 H   0  0  0  0  0  0  0  0  0  0  0  0
 30 31  1  0  0  0
 31 32  1  0  0  0
 32 33  2  0  0  0
 32 29  1  0  0  0
 29  1  1  0  0  0
  1  2  1  0  0  0
  3  2  1  0  0  0
  3  4  1  0  0  0
  4  5  2  0  0  0
  4  6  1  0  0  0
  6 19  1  0  0  0
 19 20  2  0  0  0
 20 21  1  0  0  0
 21 22  2  0  0  0
 22 23  1  0  0  0
 23 24  2  0  0  0
 24 25  1  0  0  0
 25 26  2  0  0  0
 26 27  1  0  0  0
 27 28  2  0  0  0
  6  7  1  0  0  0
  7  8  1  0  0  0
  8  9  1  0  0  0
  3 10  1  0  0  0
 10 11  2  0  0  0
 11 12  1  0  0  0
 12 13  1  0  0  0
 12 14  2  0  0  0
 14 15  1  0  0  0
 15 16  2  0  0  0
 16 17  1  0  0  0
 17 18  2  0  0  0
 17  1  1  0  0  0
  8  3  1  0  0  0
 16 10  1  0  0  0
 28 19  1  0  0  0
 28 23  1  0  0  0
 31 34  1  0  0  0
M  END
> <minimizedAffinity>
-7.52613

> <CNNscore>
0.3177958727

> <CNNaffinity>
6.3943219185

> <CNN_VS>
2.0320892334

> <CNNaffinity_variance>
0.3749706745

$$$$



 34 38  0  0  0  0  0  0  0  0999 V2000
    3.8128   -5.0839   26.1777 N   0  0  0  0  0  0  0  0  0  0  0  0
    5.0889   -5.2056   25.3988 C   0  0  0  0  0  0  0  0  0  0  0  0
    6.0109   -4.0283   25.2812 C   0  0  0  0  0  0  0  0  0  0  0  0
    7.0263   -2.9432   25.0773 C   0  0  0  0  0  0  0  0  0  0  0  0
    7.2191   -1.7810   25.3750 O   0  0  0  0  0  0  0  0  0  0  0  0
    8.1387   -3.5006   24.2396 N   0  0  0  0  0  0  0  0  0  0  0  0
    7.8109   -4.9303   23.9258 C   0  0  0  0  0  0  0  0  0  0  0  0
    6.4958   -5.2564   24.5695 C   0  0  0  0  0  0  0  0  0  0  0  0
    5.7897   -6.5785   24.5117 C   0  0  0  0  0  0  0  0  0  0  0  0
    5.6568   -2.7292   25.9425 C   0  0  0  0  0  0  0  0  0  0  0  0
    6.5788   -1.5520   25.8249 C   0  0  0  0  0  0  0  0  0  0  0  0
    6.2246   -0.2530   26.4861 C   0  0  0  0  0  0  0  0  0  0  0  0
    7.1466    0.9244   26.3685 Cl  0  0  0  0  0  0  0  0  0  0  0  0
    4.9484   -0.1314   27.2649 C   0  0  0  0  0  0  0  0  0  0  0  0
    4.0264   -1.3086   27.3825 C   0  0  0  0  0  0  0  0  0  0  0  0
    4.3806   -2.6076   26.7213 C   0  0  0  0  0  0  0  0  0  0  0  0
    3.4586   -3.7850   26.8389 C   0  0  0  0  0  0  0  0  0  0  0  0
    2.1824   -3.6633   27.6177 O   0  0  0  0  0  0  0  0  0  0  0  0
    9.3638   -2.7587   23.7941 C   0  0  0  0  0  0  0  0  0  0  0  0
    9.3431   -1.9767   22.5142 C   0  0  0  0  0  0  0  0  0  0  0  0
   10.5682   -1.2348   22.0686 N   0  0  0  0  0  0  0  0  0  0  0  0
   11.8141   -1.2748   22.9029 C   0  0  0  0  0  0  0  0  0  0  0  0
   11.8349   -2.0568   24.1828 C   0  0  0  0  0  0  0  0  0  0  0  0
   13.0809   -2.0968   25.0171 C   0  0  0  0  0  0  0  0  0  0  0  0
   13.1016   -2.8789   26.2970 C   0  0  0  0  0  0  0  0  0  0  0  0
   11.8764   -3.6208   26.7425 C   0  0  0  0  0  0  0  0  0  0  0  0
   10.6305   -3.5808   25.9082 C   0  0  0  0  0  0  0  0  0  0  0  0
   10.6098   -2.7988   24.6284 C   0  0  0  0  0  0  0  0  0  0  0  0
    2.8907   -6.2613   26.2952 C   0  0  0  0  0  0  0  0  0  0  0  0
    1.1138   -6.5487   22.7583 C   0  0  0  0  0  0  0  0  0  0  0  0
    2.1664   -6.3135   23.8007 N   0  0  0  0  0  0  0  0  0  0  0  0
    1.8381   -6.4965   25.2528 C   0  0  0  0  0  0  0  0  0  0  0  0
    0.4571   -6.9150   25.6626 O   0  0  0  0  0  0  0  0  0  0  0  0
    3.0728   -6.0388   23.5318 H   0  0  0  0  0  0  0  0  0  0  0  0
 30 31  1  0  0  0
 31 32  1  0  0  0
 32 33  2  0  0  0
 32 29  1  0  0  0
 29  1  1  0  0  0
  1  2  1  0  0  0
  3  2  1  0  0  0
  3  4  1  0  0  0
  4  5  2  0  0  0
  4  6  1  0  0  0
  6 19  1  0  0  0
 19 20  2  0  0  0
 20 21  1  0  0  0
 21 22  2  0  0  0
 22 23  1  0  0  0
 23 24  2  0  0  0
 24 25  1  0  0  0
 25 26  2  0  0  0
 26 27  1  0  0  0
 27 28  2  0  0  0
  6  7  1  0  0  0
  7  8  1  0  0  0
  8  9  1  0  0  0
  3 10  1  0  0  0
 10 11  2  0  0  0
 11 12  1  0  0  0
 12 13  1  0  0  0
 12 14  2  0  0  0
 14 15  1  0  0  0
 15 16  2  0  0  0
 16 17  1  0  0  0
 17 18  2  0  0  0
 17  1  1  0  0  0
  8  3  1  0  0  0
 16 10  1  0  0  0
 28 19  1  0  0  0
 28 23  1  0  0  0
 31 34  1  0  0  0
M  END
> <minimizedAffinity>
-7.38723

> <CNNscore>
0.3007528484

> <CNNaffinity>
6.1926536560

> <CNN_VS>
1.8624582291

> <CNNaffinity_variance>
0.0972353444

$$$$



 34 38  0  0  0  0  0  0  0  0999 V2000
    5.1611    2.1027   22.5442 N   0  0  0  0  0  0  0  0  0  0  0  0
    6.3364    1.1710   22.5682 C   0  0  0  0  0  0  0  0  0  0  0  0
    6.6795    0.4288   23.8256 C   0  0  0  0  0  0  0  0  0  0  0  0
    7.1419   -0.3771   25.0032 C   0  0  0  0  0  0  0  0  0  0  0  0
    6.8474   -0.5825   26.1640 O   0  0  0  0  0  0  0  0  0  0  0  0
    8.3470   -1.1646   24.5816 N   0  0  0  0  0  0  0  0  0  0  0  0
    8.6294   -0.8453   23.1435 C   0  0  0  0  0  0  0  0  0  0  0  0
    7.5988    0.1394   22.6762 C   0  0  0  0  0  0  0  0  0  0  0  0
    7.5042    0.7309   21.3010 C   0  0  0  0  0  0  0  0  0  0  0  0
    5.8473    0.6181   25.0592 C   0  0  0  0  0  0  0  0  0  0  0  0
    6.1904   -0.1242   26.3166 C   0  0  0  0  0  0  0  0  0  0  0  0
    5.3582    0.0652   27.5501 C   0  0  0  0  0  0  0  0  0  0  0  0
    5.7013   -0.6771   28.8077 Cl  0  0  0  0  0  0  0  0  0  0  0  0
    4.1828    0.9969   27.5261 C   0  0  0  0  0  0  0  0  0  0  0  0
    3.8397    1.7391   26.2687 C   0  0  0  0  0  0  0  0  0  0  0  0
    4.6719    1.5498   25.0352 C   0  0  0  0  0  0  0  0  0  0  0  0
    4.3288    2.2921   23.7777 C   0  0  0  0  0  0  0  0  0  0  0  0
    3.1535    3.2237   23.7537 O   0  0  0  0  0  0  0  0  0  0  0  0
    9.1319   -2.1059   25.4464 C   0  0  0  0  0  0  0  0  0  0  0  0
    8.4188   -3.1224   26.2880 C   0  0  0  0  0  0  0  0  0  0  0  0
    9.2037   -4.0638   27.1528 N   0  0  0  0  0  0  0  0  0  0  0  0
   10.7016   -3.9886   27.1759 C   0  0  0  0  0  0  0  0  0  0  0  0
   11.4147   -2.9722   26.3343 C   0  0  0  0  0  0  0  0  0  0  0  0
   12.9127   -2.8971   26.3574 C   0  0  0  0  0  0  0  0  0  0  0  0
   13.6256   -1.8806   25.5157 C   0  0  0  0  0  0  0  0  0  0  0  0
   12.8408   -0.9392   24.6510 C   0  0  0  0  0  0  0  0  0  0  0  0
   11.3429   -1.0143   24.6278 C   0  0  0  0  0  0  0  0  0  0  0  0
   10.6298   -2.0308   25.4695 C   0  0  0  0  0  0  0  0  0  0  0  0
    4.8180    2.8450   21.2866 C   0  0  0  0  0  0  0  0  0  0  0  0
    6.2615    6.5412   21.2219 C   0  0  0  0  0  0  0  0  0  0  0  0
    6.2033    5.0426   21.2477 N   0  0  0  0  0  0  0  0  0  0  0  0
    4.8762    4.3436   21.2608 C   0  0  0  0  0  0  0  0  0  0  0  0
    3.6071    5.1434   21.2480 O   0  0  0  0  0  0  0  0  0  0  0  0
    7.0361    4.5177   21.2561 H   0  0  0  0  0  0  0  0  0  0  0  0
 30 31  1  0  0  0
 31 32  1  0  0  0
 32 33  2  0  0  0
 32 29  1  0  0  0
 29  1  1  0  0  0
  1  2  1  0  0  0
  3  2  1  0  0  0
  3  4  1  0  0  0
  4  5  2  0  0  0
  4  6  1  0  0  0
  6 19  1  0  0  0
 19 20  2  0  0  0
 20 21  1  0  0  0
 21 22  2  0  0  0
 22 23  1  0  0  0
 23 24  2  0  0  0
 24 25  1  0  0  0
 25 26  2  0  0  0
 26 27  1  0  0  0
 27 28  2  0  0  0
  6  7  1  0  0  0
  7  8  1  0  0  0
  8  9  1  0  0  0
  3 10  1  0  0  0
 10 11  2  0  0  0
 11 12  1  0  0  0
 12 13  1  0  0  0
 12 14  2  0  0  0
 14 15  1  0  0  0
 15 16  2  0  0  0
 16 17  1  0  0  0
 17 18  2  0  0  0
 17  1  1  0  0  0
  8  3  1  0  0  0
 16 10  1  0  0  0
 28 19  1  0  0  0
 28 23  1  0  0  0
 31 34  1  0  0  0
M  END
> <minimizedAffinity>
-7.04133

> <CNNscore>
0.2695066929

> <CNNaffinity>
6.1708736420

> <CNN_VS>
1.6630917788

> <CNNaffinity_variance>
0.1552720070

$$$$
