


 34 38  0  0  0  0  0  0  0  0999 V2000
   -6.9728   -0.5706  -22.8769 N   0  0  0  0  0  0  0  0  0  0  0  0
   -7.4569    0.8280  -23.1207 C   0  0  0  0  0  0  0  0  0  0  0  0
   -8.9250    1.0988  -23.2666 C   0  0  0  0  0  0  0  0  0  0  0  0
  -10.3549    1.5205  -23.4324 C   0  0  0  0  0  0  0  0  0  0  0  0
  -11.4716    1.0416  -23.4410 O   0  0  0  0  0  0  0  0  0  0  0  0
  -10.3779    3.0036  -23.6557 N   0  0  0  0  0  0  0  0  0  0  0  0
   -8.9621    3.4985  -23.6280 C   0  0  0  0  0  0  0  0  0  0  0  0
   -8.0642    2.3212  -23.3875 C   0  0  0  0  0  0  0  0  0  0  0  0
   -6.5682    2.3597  -23.2858 C   0  0  0  0  0  0  0  0  0  0  0  0
   -9.9091   -0.0292  -23.1687 C   0  0  0  0  0  0  0  0  0  0  0  0
  -11.3772    0.2416  -23.3146 C   0  0  0  0  0  0  0  0  0  0  0  0
  -12.3611   -0.8863  -23.2167 C   0  0  0  0  0  0  0  0  0  0  0  0
  -13.8293   -0.6156  -23.3627 Cl  0  0  0  0  0  0  0  0  0  0  0  0
  -11.8770   -2.2849  -22.9729 C   0  0  0  0  0  0  0  0  0  0  0  0
  -10.4089   -2.5557  -22.8270 C   0  0  0  0  0  0  0  0  0  0  0  0
   -9.4249   -1.4278  -22.9249 C   0  0  0  0  0  0  0  0  0  0  0  0
   -7.9567   -1.6985  -22.7790 C   0  0  0  0  0  0  0  0  0  0  0  0
   -7.4726   -3.0971  -22.5351 O   0  0  0  0  0  0  0  0  0  0  0  0
  -11.6017    3.8442  -23.8693 C   0  0  0  0  0  0  0  0  0  0  0  0
  -12.5430    4.1016  -22.7301 C   0  0  0  0  0  0  0  0  0  0  0  0
  -13.7669    4.9422  -22.9436 N   0  0  0  0  0  0  0  0  0  0  0  0
  -14.0494    5.5254  -24.2964 C   0  0  0  0  0  0  0  0  0  0  0  0
  -13.1080    5.2681  -25.4356 C   0  0  0  0  0  0  0  0  0  0  0  0
  -13.3906    5.8514  -26.7884 C   0  0  0  0  0  0  0  0  0  0  0  0
  -12.4492    5.5941  -27.9275 C   0  0  0  0  0  0  0  0  0  0  0  0
  -11.2254    4.7535  -27.7140 C   0  0  0  0  0  0  0  0  0  0  0  0
  -10.9429    4.1702  -26.3612 C   0  0  0  0  0  0  0  0  0  0  0  0
  -11.8842    4.4275  -25.2220 C   0  0  0  0  0  0  0  0  0  0  0  0
   -5.5046   -0.8413  -22.7309 C   0  0  0  0  0  0  0  0  0  0  0  0
   -3.8468   -1.7643  -26.2166 C   0  0  0  0  0  0  0  0  0  0  0  0
   -4.7425   -1.8181  -25.0146 N   0  0  0  0  0  0  0  0  0  0  0  0
   -4.6089   -0.7875  -23.9330 C   0  0  0  0  0  0  0  0  0  0  0  0
   -3.5797    0.2971  -24.0534 O   0  0  0  0  0  0  0  0  0  0  0  0
   -5.4180   -2.5300  -24.9355 H   0  0  0  0  0  0  0  0  0  0  0  0
 30 31  1  0  0  0
 31 32  1  0  0  0
 32 33  2  0  0  0
 32 29  1  0  0  0
 29  1  1  0  0  0
  1  2  1  0  0  0
  3  2  1  0  0  0
  3  4  1  0  0  0
  4  5  2  0  0  0
  4  6  1  0  0  0
  6 19  1  0  0  0
 19 20  2  0  0  0
 20 21  1  0  0  0
 21 22  2  0  0  0
 22 23  1  0  0  0
 23 24  2  0  0  0
 24 25  1  0  0  0
 25 26  2  0  0  0
 26 27  1  0  0  0
 27 28  2  0  0  0
  6  7  1  0  0  0
  7  8  1  0  0  0
  8  9  1  0  0  0
  3 10  1  0  0  0
 10 11  2  0  0  0
 11 12  1  0  0  0
 12 13  1  0  0  0
 12 14  2  0  0  0
 14 15  1  0  0  0
 15 16  2  0  0  0
 16 17  1  0  0  0
 17 18  2  0  0  0
 17  1  1  0  0  0
  8  3  1  0  0  0
 16 10  1  0  0  0
 28 19  1  0  0  0
 28 23  1  0  0  0
 31 34  1  0  0  0
M  END
> <minimizedAffinity>
-7.23965

> <CNNscore>
0.7360566258

> <CNNaffinity>
6.4296517372

> <CNN_VS>
4.7325878143

> <CNNaffinity_variance>
0.0846507624

$$$$



 34 38  0  0  0  0  0  0  0  0999 V2000
   -9.3933    2.7929  -24.6653 N   0  0  0  0  0  0  0  0  0  0  0  0
   -8.4614    1.6231  -24.7795 C   0  0  0  0  0  0  0  0  0  0  0  0
   -8.9373    0.2471  -24.4190 C   0  0  0  0  0  0  0  0  0  0  0  0
   -9.2693   -1.1796  -24.0960 C   0  0  0  0  0  0  0  0  0  0  0  0
  -10.2008   -1.8518  -23.6998 O   0  0  0  0  0  0  0  0  0  0  0  0
   -8.0469   -2.0099  -24.3536 N   0  0  0  0  0  0  0  0  0  0  0  0
   -6.9594   -1.0963  -24.8359 C   0  0  0  0  0  0  0  0  0  0  0  0
   -7.5096    0.2985  -24.8763 C   0  0  0  0  0  0  0  0  0  0  0  0
   -6.7632    1.5288  -25.2997 C   0  0  0  0  0  0  0  0  0  0  0  0
  -10.3452    0.0408  -23.9442 C   0  0  0  0  0  0  0  0  0  0  0  0
  -10.8210   -1.3353  -23.5836 C   0  0  0  0  0  0  0  0  0  0  0  0
  -12.2289   -1.5415  -23.1088 C   0  0  0  0  0  0  0  0  0  0  0  0
  -12.7048   -2.9176  -22.7482 Cl  0  0  0  0  0  0  0  0  0  0  0  0
  -13.1608   -0.3717  -22.9946 C   0  0  0  0  0  0  0  0  0  0  0  0
  -12.6849    1.0043  -23.3551 C   0  0  0  0  0  0  0  0  0  0  0  0
  -11.2771    1.2106  -23.8299 C   0  0  0  0  0  0  0  0  0  0  0  0
  -10.8012    2.5867  -24.1905 C   0  0  0  0  0  0  0  0  0  0  0  0
  -11.7331    3.7565  -24.0763 O   0  0  0  0  0  0  0  0  0  0  0  0
   -7.9323   -3.4932  -24.1626 C   0  0  0  0  0  0  0  0  0  0  0  0
   -7.3418   -4.0432  -22.8980 C   0  0  0  0  0  0  0  0  0  0  0  0
   -7.2272   -5.5265  -22.7070 N   0  0  0  0  0  0  0  0  0  0  0  0
   -7.7030   -6.4599  -23.7804 C   0  0  0  0  0  0  0  0  0  0  0  0
   -8.2934   -5.9100  -25.0449 C   0  0  0  0  0  0  0  0  0  0  0  0
   -8.7692   -6.8435  -26.1184 C   0  0  0  0  0  0  0  0  0  0  0  0
   -9.3596   -6.2935  -27.3829 C   0  0  0  0  0  0  0  0  0  0  0  0
   -9.4743   -4.8102  -27.5740 C   0  0  0  0  0  0  0  0  0  0  0  0
   -8.9985   -3.8767  -26.5005 C   0  0  0  0  0  0  0  0  0  0  0  0
   -8.4081   -4.4267  -25.2360 C   0  0  0  0  0  0  0  0  0  0  0  0
   -8.9174    4.1690  -25.0259 C   0  0  0  0  0  0  0  0  0  0  0  0
   -7.0637    5.8069  -21.9225 C   0  0  0  0  0  0  0  0  0  0  0  0
   -8.1201    5.1377  -22.7508 N   0  0  0  0  0  0  0  0  0  0  0  0
   -7.8610    4.8382  -24.1975 C   0  0  0  0  0  0  0  0  0  0  0  0
   -6.5453    5.2078  -24.8160 O   0  0  0  0  0  0  0  0  0  0  0  0
   -8.9836    4.8951  -22.3449 H   0  0  0  0  0  0  0  0  0  0  0  0
 30 31  1  0  0  0
 31 32  1  0  0  0
 32 33  2  0  0  0
 32 29  1  0  0  0
 29  1  1  0  0  0
  1  2  1  0  0  0
  3  2  1  0  0  0
  3  4  1  0  0  0
  4  5  2  0  0  0
  4  6  1  0  0  0
  6 19  1  0  0  0
 19 20  2  0  0  0
 20 21  1  0  0  0
 21 22  2  0  0  0
 22 23  1  0  0  0
 23 24  2  0  0  0
 24 25  1  0  0  0
 25 26  2  0  0  0
 26 27  1  0  0  0
 27 28  2  0  0  0
  6  7  1  0  0  0
  7  8  1  0  0  0
  8  9  1  0  0  0
  3 10  1  0  0  0
 10 11  2  0  0  0
 11 12  1  0  0  0
 12 13  1  0  0  0
 12 14  2  0  0  0
 14 15  1  0  0  0
 15 16  2  0  0  0
 16 17  1  0  0  0
 17 18  2  0  0  0
 17  1  1  0  0  0
  8  3  1  0  0  0
 16 10  1  0  0  0
 28 19  1  0  0  0
 28 23  1  0  0  0
 31 34  1  0  0  0
M  END
> <minimizedAffinity>
-7.50216

> <CNNscore>
0.4556424320

> <CNNaffinity>
6.3002314568

> <CNN_VS>
2.8706526756

> <CNNaffinity_variance>
0.1014201790

$$$$



 34 38  0  0  0  0  0  0  0  0999 V2000
   -7.1299   -0.9005  -21.6031 N   0  0  0  0  0  0  0  0  0  0  0  0
   -7.1895    0.4196  -22.3130 C   0  0  0  0  0  0  0  0  0  0  0  0
   -8.4443    0.8334  -23.0230 C   0  0  0  0  0  0  0  0  0  0  0  0
   -9.6238    1.3792  -23.7719 C   0  0  0  0  0  0  0  0  0  0  0  0
  -10.7635    1.0749  -24.0632 O   0  0  0  0  0  0  0  0  0  0  0  0
   -9.2434    2.7226  -24.3203 N   0  0  0  0  0  0  0  0  0  0  0  0
   -7.8288    3.0070  -23.9102 C   0  0  0  0  0  0  0  0  0  0  0  0
   -7.3350    1.8394  -23.1085 C   0  0  0  0  0  0  0  0  0  0  0  0
   -5.9712    1.7019  -22.4992 C   0  0  0  0  0  0  0  0  0  0  0  0
   -9.6396   -0.0730  -23.0232 C   0  0  0  0  0  0  0  0  0  0  0  0
  -10.8945    0.3408  -23.7332 C   0  0  0  0  0  0  0  0  0  0  0  0
  -12.0897   -0.5655  -23.7333 C   0  0  0  0  0  0  0  0  0  0  0  0
  -13.3446   -0.1518  -24.4434 Cl  0  0  0  0  0  0  0  0  0  0  0  0
  -12.0300   -1.8856  -23.0235 C   0  0  0  0  0  0  0  0  0  0  0  0
  -10.7752   -2.2994  -22.3135 C   0  0  0  0  0  0  0  0  0  0  0  0
   -9.5800   -1.3931  -22.3133 C   0  0  0  0  0  0  0  0  0  0  0  0
   -8.3251   -1.8068  -21.6033 C   0  0  0  0  0  0  0  0  0  0  0  0
   -8.2654   -3.1269  -20.8935 O   0  0  0  0  0  0  0  0  0  0  0  0
  -10.1231    3.6234  -25.1355 C   0  0  0  0  0  0  0  0  0  0  0  0
   -9.8178    3.8585  -26.5852 C   0  0  0  0  0  0  0  0  0  0  0  0
  -10.6976    4.7592  -27.4005 N   0  0  0  0  0  0  0  0  0  0  0  0
  -11.8826    5.4249  -26.7661 C   0  0  0  0  0  0  0  0  0  0  0  0
  -12.1879    5.1898  -25.3164 C   0  0  0  0  0  0  0  0  0  0  0  0
  -13.3730    5.8556  -24.6820 C   0  0  0  0  0  0  0  0  0  0  0  0
  -13.6783    5.6204  -23.2323 C   0  0  0  0  0  0  0  0  0  0  0  0
  -12.7985    4.7196  -22.4170 C   0  0  0  0  0  0  0  0  0  0  0  0
  -11.6135    4.0540  -23.0514 C   0  0  0  0  0  0  0  0  0  0  0  0
  -11.3082    4.2891  -24.5011 C   0  0  0  0  0  0  0  0  0  0  0  0
   -5.8749   -1.3142  -20.8931 C   0  0  0  0  0  0  0  0  0  0  0  0
   -5.3901   -5.1694  -21.7009 C   0  0  0  0  0  0  0  0  0  0  0  0
   -5.7083   -3.7139  -21.8748 N   0  0  0  0  0  0  0  0  0  0  0  0
   -5.5567   -2.7697  -20.7192 C   0  0  0  0  0  0  0  0  0  0  0  0
   -5.0870   -3.2811  -19.3895 O   0  0  0  0  0  0  0  0  0  0  0  0
   -6.0166   -3.3783  -22.7475 H   0  0  0  0  0  0  0  0  0  0  0  0
 30 31  1  0  0  0
 31 32  1  0  0  0
 32 33  2  0  0  0
 32 29  1  0  0  0
 29  1  1  0  0  0
  1  2  1  0  0  0
  3  2  1  0  0  0
  3  4  1  0  0  0
  4  5  2  0  0  0
  4  6  1  0  0  0
  6 19  1  0  0  0
 19 20  2  0  0  0
 20 21  1  0  0  0
 21 22  2  0  0  0
 22 23  1  0  0  0
 23 24  2  0  0  0
 24 25  1  0  0  0
 25 26  2  0  0  0
 26 27  1  0  0  0
 27 28  2  0  0  0
  6  7  1  0  0  0
  7  8  1  0  0  0
  8  9  1  0  0  0
  3 10  1  0  0  0
 10 11  2  0  0  0
 11 12  1  0  0  0
 12 13  1  0  0  0
 12 14  2  0  0  0
 14 15  1  0  0  0
 15 16  2  0  0  0
 16 17  1  0  0  0
 17 18  2  0  0  0
 17  1  1  0  0  0
  8  3  1  0  0  0
 16 10  1  0  0  0
 28 19  1  0  0  0
 28 23  1  0  0  0
 31 34  1  0  0  0
M  END
> <minimizedAffinity>
-7.15577

> <CNNscore>
0.4393874109

> <CNNaffinity>
6.1224241257

> <CNN_VS>
2.6901161671

> <CNNaffinity_variance>
0.0582045428

$$$$



 34 38  0  0  0  0  0  0  0  0999 V2000
  -10.6973    3.7228  -24.0199 N   0  0  0  0  0  0  0  0  0  0  0  0
   -9.4292    2.9221  -23.9915 C   0  0  0  0  0  0  0  0  0  0  0  0
   -9.4828    1.4403  -23.7646 C   0  0  0  0  0  0  0  0  0  0  0  0
   -9.3797   -0.0405  -23.5493 C   0  0  0  0  0  0  0  0  0  0  0  0
  -10.0929   -1.0044  -23.3523 O   0  0  0  0  0  0  0  0  0  0  0  0
   -7.9284   -0.4163  -23.5982 N   0  0  0  0  0  0  0  0  0  0  0  0
   -7.1344    0.8324  -23.8439 C   0  0  0  0  0  0  0  0  0  0  0  0
   -8.0950    1.9798  -23.9467 C   0  0  0  0  0  0  0  0  0  0  0  0
   -7.7317    3.4148  -24.1891 C   0  0  0  0  0  0  0  0  0  0  0  0
  -10.8045    0.7593  -23.5660 C   0  0  0  0  0  0  0  0  0  0  0  0
  -10.8580   -0.7225  -23.3391 C   0  0  0  0  0  0  0  0  0  0  0  0
  -12.1797   -1.4035  -23.1405 C   0  0  0  0  0  0  0  0  0  0  0  0
  -12.2333   -2.8853  -22.9136 Cl  0  0  0  0  0  0  0  0  0  0  0  0
  -13.4477   -0.6027  -23.1689 C   0  0  0  0  0  0  0  0  0  0  0  0
  -13.3942    0.8790  -23.3958 C   0  0  0  0  0  0  0  0  0  0  0  0
  -12.0725    1.5600  -23.5944 C   0  0  0  0  0  0  0  0  0  0  0  0
  -12.0189    3.0418  -23.8213 C   0  0  0  0  0  0  0  0  0  0  0  0
  -13.2870    3.8426  -23.8496 O   0  0  0  0  0  0  0  0  0  0  0  0
   -7.3692   -1.7981  -23.4309 C   0  0  0  0  0  0  0  0  0  0  0  0
   -6.8016   -2.2225  -22.1089 C   0  0  0  0  0  0  0  0  0  0  0  0
   -6.2424   -3.6043  -21.9416 N   0  0  0  0  0  0  0  0  0  0  0  0
   -6.2509   -4.5616  -23.0963 C   0  0  0  0  0  0  0  0  0  0  0  0
   -6.8186   -4.1372  -24.4183 C   0  0  0  0  0  0  0  0  0  0  0  0
   -6.8270   -5.0947  -25.5730 C   0  0  0  0  0  0  0  0  0  0  0  0
   -7.3947   -4.6702  -26.8950 C   0  0  0  0  0  0  0  0  0  0  0  0
   -7.9538   -3.2884  -27.0623 C   0  0  0  0  0  0  0  0  0  0  0  0
   -7.9454   -2.3310  -25.9076 C   0  0  0  0  0  0  0  0  0  0  0  0
   -7.3777   -2.7554  -24.5856 C   0  0  0  0  0  0  0  0  0  0  0  0
  -10.6436    5.2046  -24.2468 C   0  0  0  0  0  0  0  0  0  0  0  0
  -12.9656    6.6880  -27.1030 C   0  0  0  0  0  0  0  0  0  0  0  0
  -12.5267    6.1143  -25.7884 N   0  0  0  0  0  0  0  0  0  0  0  0
  -11.0826    5.7784  -25.5614 C   0  0  0  0  0  0  0  0  0  0  0  0
  -10.0772    6.0163  -26.6490 O   0  0  0  0  0  0  0  0  0  0  0  0
  -13.1865    5.9581  -25.0746 H   0  0  0  0  0  0  0  0  0  0  0  0
 30 31  1  0  0  0
 31 32  1  0  0  0
 32 33  2  0  0  0
 32 29  1  0  0  0
 29  1  1  0  0  0
  1  2  1  0  0  0
  3  2  1  0  0  0
  3  4  1  0  0  0
  4  5  2  0  0  0
  4  6  1  0  0  0
  6 19  1  0  0  0
 19 20  2  0  0  0
 20 21  1  0  0  0
 21 22  2  0  0  0
 22 23  1  0  0  0
 23 24  2  0  0  0
 24 25  1  0  0  0
 25 26  2  0  0  0
 26 27  1  0  0  0
 27 28  2  0  0  0
  6  7  1  0  0  0
  7  8  1  0  0  0
  8  9  1  0  0  0
  3 10  1  0  0  0
 10 11  2  0  0  0
 11 12  1  0  0  0
 12 13  1  0  0  0
 12 14  2  0  0  0
 14 15  1  0  0  0
 15 16  2  0  0  0
 16 17  1  0  0  0
 17 18  2  0  0  0
 17  1  1  0  0  0
  8  3  1  0  0  0
 16 10  1  0  0  0
 28 19  1  0  0  0
 28 23  1  0  0  0
 31 34  1  0  0  0
M  END
> <minimizedAffinity>
-7.12437

> <CNNscore>
0.4336903989

> <CNNaffinity>
6.3544816971

> <CNN_VS>
2.7558777332

> <CNNaffinity_variance>
0.4165430963

$$$$



 34 38  0  0  0  0  0  0  0  0999 V2000
  -11.5771    3.9222  -24.0212 N   0  0  0  0  0  0  0  0  0  0  0  0
  -10.1948    3.3504  -23.9113 C   0  0  0  0  0  0  0  0  0  0  0  0
  -10.0078    1.8845  -23.6543 C   0  0  0  0  0  0  0  0  0  0  0  0
   -9.6662    0.4460  -23.4009 C   0  0  0  0  0  0  0  0  0  0  0  0
  -10.2148   -0.6227  -23.2185 O   0  0  0  0  0  0  0  0  0  0  0  0
   -8.1716    0.3232  -23.3686 N   0  0  0  0  0  0  0  0  0  0  0  0
   -7.5894    1.6857  -23.6020 C   0  0  0  0  0  0  0  0  0  0  0  0
   -8.7242    2.6506  -23.7786 C   0  0  0  0  0  0  0  0  0  0  0  0
   -8.5976    4.1232  -24.0345 C   0  0  0  0  0  0  0  0  0  0  0  0
  -11.2032    0.9903  -23.5070 C   0  0  0  0  0  0  0  0  0  0  0  0
  -11.0162   -0.4756  -23.2500 C   0  0  0  0  0  0  0  0  0  0  0  0
  -12.2116   -1.3696  -23.1027 C   0  0  0  0  0  0  0  0  0  0  0  0
  -12.0246   -2.8356  -22.8457 Cl  0  0  0  0  0  0  0  0  0  0  0  0
  -13.5939   -0.7977  -23.2126 C   0  0  0  0  0  0  0  0  0  0  0  0
  -13.7809    0.6682  -23.4696 C   0  0  0  0  0  0  0  0  0  0  0  0
  -12.5855    1.5622  -23.6169 C   0  0  0  0  0  0  0  0  0  0  0  0
  -12.7725    3.0282  -23.8739 C   0  0  0  0  0  0  0  0  0  0  0  0
  -14.1548    3.6000  -23.9837 O   0  0  0  0  0  0  0  0  0  0  0  0
   -7.3955   -0.9404  -23.1425 C   0  0  0  0  0  0  0  0  0  0  0  0
   -7.1670   -1.8936  -24.2780 C   0  0  0  0  0  0  0  0  0  0  0  0
   -6.3909   -3.1571  -24.0519 N   0  0  0  0  0  0  0  0  0  0  0  0
   -5.8433   -3.4675  -22.6904 C   0  0  0  0  0  0  0  0  0  0  0  0
   -6.0718   -2.5143  -21.5549 C   0  0  0  0  0  0  0  0  0  0  0  0
   -5.5242   -2.8247  -20.1933 C   0  0  0  0  0  0  0  0  0  0  0  0
   -5.7527   -1.8715  -19.0579 C   0  0  0  0  0  0  0  0  0  0  0  0
   -6.5288   -0.6080  -19.2840 C   0  0  0  0  0  0  0  0  0  0  0  0
   -7.0764   -0.2976  -20.6455 C   0  0  0  0  0  0  0  0  0  0  0  0
   -6.8479   -1.2508  -21.7810 C   0  0  0  0  0  0  0  0  0  0  0  0
  -11.7641    5.3882  -24.2782 C   0  0  0  0  0  0  0  0  0  0  0  0
  -13.9812    6.3878  -27.4143 C   0  0  0  0  0  0  0  0  0  0  0  0
  -13.5952    5.9096  -26.0460 N   0  0  0  0  0  0  0  0  0  0  0  0
  -12.1501    5.8664  -25.6465 C   0  0  0  0  0  0  0  0  0  0  0  0
  -11.0908    6.3016  -26.6155 O   0  0  0  0  0  0  0  0  0  0  0  0
  -14.2904    5.6240  -25.4101 H   0  0  0  0  0  0  0  0  0  0  0  0
 30 31  1  0  0  0
 31 32  1  0  0  0
 32 33  2  0  0  0
 32 29  1  0  0  0
 29  1  1  0  0  0
  1  2  1  0  0  0
  3  2  1  0  0  0
  3  4  1  0  0  0
  4  5  2  0  0  0
  4  6  1  0  0  0
  6 19  1  0  0  0
 19 20  2  0  0  0
 20 21  1  0  0  0
 21 22  2  0  0  0
 22 23  1  0  0  0
 23 24  2  0  0  0
 24 25  1  0  0  0
 25 26  2  0  0  0
 26 27  1  0  0  0
 27 28  2  0  0  0
  6  7  1  0  0  0
  7  8  1  0  0  0
  8  9  1  0  0  0
  3 10  1  0  0  0
 10 11  2  0  0  0
 11 12  1  0  0  0
 12 13  1  0  0  0
 12 14  2  0  0  0
 14 15  1  0  0  0
 15 16  2  0  0  0
 16 17  1  0  0  0
 17 18  2  0  0  0
 17  1  1  0  0  0
  8  3  1  0  0  0
 16 10  1  0  0  0
 28 19  1  0  0  0
 28 23  1  0  0  0
 31 34  1  0  0  0
M  END
> <minimizedAffinity>
-8.20359

> <CNNscore>
0.3499552011

> <CNNaffinity>
6.2597703934

> <CNN_VS>
2.1906392574

> <CNNaffinity_variance>
0.0509408712

$$$$



 34 38  0  0  0  0  0  0  0  0999 V2000
   -8.3664   -5.5970  -24.2673 N   0  0  0  0  0  0  0  0  0  0  0  0
   -7.3122   -5.1985  -23.2775 C   0  0  0  0  0  0  0  0  0  0  0  0
   -7.3473   -3.8356  -22.6521 C   0  0  0  0  0  0  0  0  0  0  0  0
   -7.2529   -2.5143  -21.9484 C   0  0  0  0  0  0  0  0  0  0  0  0
   -7.8371   -1.4509  -21.8826 O   0  0  0  0  0  0  0  0  0  0  0  0
   -6.0496   -2.5506  -21.0535 N   0  0  0  0  0  0  0  0  0  0  0  0
   -5.4004   -3.8944  -21.2041 C   0  0  0  0  0  0  0  0  0  0  0  0
   -6.2024   -4.6885  -22.1921 C   0  0  0  0  0  0  0  0  0  0  0  0
   -5.9107   -6.0897  -22.6412 C   0  0  0  0  0  0  0  0  0  0  0  0
   -8.4367   -2.8710  -23.0166 C   0  0  0  0  0  0  0  0  0  0  0  0
   -8.4719   -1.5081  -22.3912 C   0  0  0  0  0  0  0  0  0  0  0  0
   -9.5613   -0.5435  -22.7558 C   0  0  0  0  0  0  0  0  0  0  0  0
   -9.5965    0.8195  -22.1304 Cl  0  0  0  0  0  0  0  0  0  0  0  0
  -10.6155   -0.9420  -23.7456 C   0  0  0  0  0  0  0  0  0  0  0  0
  -10.5803   -2.3049  -24.3710 C   0  0  0  0  0  0  0  0  0  0  0  0
   -9.4910   -3.2694  -24.0065 C   0  0  0  0  0  0  0  0  0  0  0  0
   -9.4558   -4.6324  -24.6319 C   0  0  0  0  0  0  0  0  0  0  0  0
  -10.5100   -5.0309  -25.6217 O   0  0  0  0  0  0  0  0  0  0  0  0
   -5.5784   -1.4384  -20.1642 C   0  0  0  0  0  0  0  0  0  0  0  0
   -5.9564   -1.4274  -18.7126 C   0  0  0  0  0  0  0  0  0  0  0  0
   -5.4852   -0.3152  -17.8233 N   0  0  0  0  0  0  0  0  0  0  0  0
   -4.6359    0.7860  -18.3855 C   0  0  0  0  0  0  0  0  0  0  0  0
   -4.2579    0.7750  -19.8371 C   0  0  0  0  0  0  0  0  0  0  0  0
   -3.4086    1.8763  -20.3993 C   0  0  0  0  0  0  0  0  0  0  0  0
   -3.0306    1.8652  -21.8509 C   0  0  0  0  0  0  0  0  0  0  0  0
   -3.5019    0.7530  -22.7402 C   0  0  0  0  0  0  0  0  0  0  0  0
   -4.3511   -0.3482  -22.1780 C   0  0  0  0  0  0  0  0  0  0  0  0
   -4.7291   -0.3372  -20.7264 C   0  0  0  0  0  0  0  0  0  0  0  0
   -8.3312   -6.9600  -24.8927 C   0  0  0  0  0  0  0  0  0  0  0  0
   -8.0731   -7.1650  -28.8476 C   0  0  0  0  0  0  0  0  0  0  0  0
   -8.6432   -6.9856  -27.4718 N   0  0  0  0  0  0  0  0  0  0  0  0
   -7.7611   -7.1394  -26.2685 C   0  0  0  0  0  0  0  0  0  0  0  0
   -6.3087   -7.4727  -26.4409 O   0  0  0  0  0  0  0  0  0  0  0  0
   -9.5964   -6.7668  -27.3587 H   0  0  0  0  0  0  0  0  0  0  0  0
 30 31  1  0  0  0
 31 32  1  0  0  0
 32 33  2  0  0  0
 32 29  1  0  0  0
 29  1  1  0  0  0
  1  2  1  0  0  0
  3  2  1  0  0  0
  3  4  1  0  0  0
  4  5  2  0  0  0
  4  6  1  0  0  0
  6 19  1  0  0  0
 19 20  2  0  0  0
 20 21  1  0  0  0
 21 22  2  0  0  0
 22 23  1  0  0  0
 23 24  2  0  0  0
 24 25  1  0  0  0
 25 26  2  0  0  0
 26 27  1  0  0  0
 27 28  2  0  0  0
  6  7  1  0  0  0
  7  8  1  0  0  0
  8  9  1  0  0  0
  3 10  1  0  0  0
 10 11  2  0  0  0
 11 12  1  0  0  0
 12 13  1  0  0  0
 12 14  2  0  0  0
 14 15  1  0  0  0
 15 16  2  0  0  0
 16 17  1  0  0  0
 17 18  2  0  0  0
 17  1  1  0  0  0
  8  3  1  0  0  0
 16 10  1  0  0  0
 28 19  1  0  0  0
 28 23  1  0  0  0
 31 34  1  0  0  0
M  END
> <minimizedAffinity>
-8.72685

> <CNNscore>
0.2930554152

> <CNNaffinity>
5.9831252098

> <CNN_VS>
1.7533872128

> <CNNaffinity_variance>
0.2964955568

$$$$



 34 38  0  0  0  0  0  0  0  0999 V2000
   -7.7485   -4.0011  -26.0226 N   0  0  0  0  0  0  0  0  0  0  0  0
   -7.2341   -4.0393  -24.6141 C   0  0  0  0  0  0  0  0  0  0  0  0
   -7.0195   -2.7611  -23.8590 C   0  0  0  0  0  0  0  0  0  0  0  0
   -6.7570   -1.5717  -22.9837 C   0  0  0  0  0  0  0  0  0  0  0  0
   -6.8258   -0.3590  -23.0158 O   0  0  0  0  0  0  0  0  0  0  0  0
   -6.2526   -2.0710  -21.6622 N   0  0  0  0  0  0  0  0  0  0  0  0
   -6.2033   -3.5690  -21.7208 C   0  0  0  0  0  0  0  0  0  0  0  0
   -6.6773   -3.9955  -23.0785 C   0  0  0  0  0  0  0  0  0  0  0  0
   -6.7895   -5.4085  -23.5695 C   0  0  0  0  0  0  0  0  0  0  0  0
   -7.3194   -1.4446  -24.5125 C   0  0  0  0  0  0  0  0  0  0  0  0
   -7.1048   -0.1664  -23.7574 C   0  0  0  0  0  0  0  0  0  0  0  0
   -7.4046    1.1500  -24.4109 C   0  0  0  0  0  0  0  0  0  0  0  0
   -7.1901    2.4283  -23.6559 Cl  0  0  0  0  0  0  0  0  0  0  0  0
   -7.9190    1.1882  -25.8194 C   0  0  0  0  0  0  0  0  0  0  0  0
   -8.1336   -0.0900  -26.5745 C   0  0  0  0  0  0  0  0  0  0  0  0
   -7.8337   -1.4064  -25.9210 C   0  0  0  0  0  0  0  0  0  0  0  0
   -8.0483   -2.6847  -26.6761 C   0  0  0  0  0  0  0  0  0  0  0  0
   -8.5627   -2.6464  -28.0846 O   0  0  0  0  0  0  0  0  0  0  0  0
   -5.8654   -1.2213  -20.4882 C   0  0  0  0  0  0  0  0  0  0  0  0
   -6.6195   -1.3379  -19.1968 C   0  0  0  0  0  0  0  0  0  0  0  0
   -6.2323   -0.4883  -18.0228 N   0  0  0  0  0  0  0  0  0  0  0  0
   -5.0910    0.4779  -18.1403 C   0  0  0  0  0  0  0  0  0  0  0  0
   -4.3369    0.5945  -19.4317 C   0  0  0  0  0  0  0  0  0  0  0  0
   -3.1955    1.5608  -19.5491 C   0  0  0  0  0  0  0  0  0  0  0  0
   -2.4415    1.6773  -20.8406 C   0  0  0  0  0  0  0  0  0  0  0  0
   -2.8287    0.8277  -22.0145 C   0  0  0  0  0  0  0  0  0  0  0  0
   -3.9700   -0.1385  -21.8971 C   0  0  0  0  0  0  0  0  0  0  0  0
   -4.7241   -0.2551  -20.6057 C   0  0  0  0  0  0  0  0  0  0  0  0
   -7.9630   -5.2794  -26.7777 C   0  0  0  0  0  0  0  0  0  0  0  0
   -4.9420   -7.7674  -27.4358 C   0  0  0  0  0  0  0  0  0  0  0  0
   -6.0995   -7.0897  -26.7643 N   0  0  0  0  0  0  0  0  0  0  0  0
   -6.8055   -5.9571  -27.4491 C   0  0  0  0  0  0  0  0  0  0  0  0
   -6.3540   -5.5023  -28.8054 O   0  0  0  0  0  0  0  0  0  0  0  0
   -6.3959   -7.3881  -25.8742 H   0  0  0  0  0  0  0  0  0  0  0  0
 30 31  1  0  0  0
 31 32  1  0  0  0
 32 33  2  0  0  0
 32 29  1  0  0  0
 29  1  1  0  0  0
  1  2  1  0  0  0
  3  2  1  0  0  0
  3  4  1  0  0  0
  4  5  2  0  0  0
  4  6  1  0  0  0
  6 19  1  0  0  0
 19 20  2  0  0  0
 20 21  1  0  0  0
 21 22  2  0  0  0
 22 23  1  0  0  0
 23 24  2  0  0  0
 24 25  1  0  0  0
 25 26  2  0  0  0
 26 27  1  0  0  0
 27 28  2  0  0  0
  6  7  1  0  0  0
  7  8  1  0  0  0
  8  9  1  0  0  0
  3 10  1  0  0  0
 10 11  2  0  0  0
 11 12  1  0  0  0
 12 13  1  0  0  0
 12 14  2  0  0  0
 14 15  1  0  0  0
 15 16  2  0  0  0
 16 17  1  0  0  0
 17 18  2  0  0  0
 17  1  1  0  0  0
  8  3  1  0  0  0
 16 10  1  0  0  0
 28 19  1  0  0  0
 28 23  1  0  0  0
 31 34  1  0  0  0
M  END
> <minimizedAffinity>
-7.91198

> <CNNscore>
0.2345402539

> <CNNaffinity>
5.9757800102

> <CNN_VS>
1.4015609026

> <CNNaffinity_variance>
0.0985501632

$$$$



 34 38  0  0  0  0  0  0  0  0999 V2000
   -6.2948   -0.0824  -22.4250 N   0  0  0  0  0  0  0  0  0  0  0  0
   -6.6225    1.1698  -23.1829 C   0  0  0  0  0  0  0  0  0  0  0  0
   -8.0167    1.3984  -23.6869 C   0  0  0  0  0  0  0  0  0  0  0  0
   -9.3586    1.7631  -24.2491 C   0  0  0  0  0  0  0  0  0  0  0  0
  -10.4881    1.3213  -24.3230 O   0  0  0  0  0  0  0  0  0  0  0  0
   -9.2313    3.0959  -24.9254 N   0  0  0  0  0  0  0  0  0  0  0  0
   -7.8106    3.5550  -24.7811 C   0  0  0  0  0  0  0  0  0  0  0  0
   -7.0599    2.5059  -24.0156 C   0  0  0  0  0  0  0  0  0  0  0  0
   -5.6075    2.5556  -23.6441 C   0  0  0  0  0  0  0  0  0  0  0  0
   -9.0832    0.3746  -23.4329 C   0  0  0  0  0  0  0  0  0  0  0  0
  -10.4774    0.6032  -23.9369 C   0  0  0  0  0  0  0  0  0  0  0  0
  -11.5439   -0.4205  -23.6829 C   0  0  0  0  0  0  0  0  0  0  0  0
  -12.9382   -0.1920  -24.1868 Cl  0  0  0  0  0  0  0  0  0  0  0  0
  -11.2162   -1.6728  -22.9249 C   0  0  0  0  0  0  0  0  0  0  0  0
   -9.8221   -1.9013  -22.4210 C   0  0  0  0  0  0  0  0  0  0  0  0
   -8.7556   -0.8776  -22.6750 C   0  0  0  0  0  0  0  0  0  0  0  0
   -7.3613   -1.1061  -22.1710 C   0  0  0  0  0  0  0  0  0  0  0  0
   -7.0336   -2.3584  -21.4130 O   0  0  0  0  0  0  0  0  0  0  0  0
  -10.3314    3.8391  -25.6234 C   0  0  0  0  0  0  0  0  0  0  0  0
  -10.3052    3.9903  -27.1156 C   0  0  0  0  0  0  0  0  0  0  0  0
  -11.4054    4.7335  -27.8136 N   0  0  0  0  0  0  0  0  0  0  0  0
  -12.5318    5.3255  -27.0194 C   0  0  0  0  0  0  0  0  0  0  0  0
  -12.5580    5.1744  -25.5273 C   0  0  0  0  0  0  0  0  0  0  0  0
  -13.6845    5.7665  -24.7331 C   0  0  0  0  0  0  0  0  0  0  0  0
  -13.7106    5.6153  -23.2410 C   0  0  0  0  0  0  0  0  0  0  0  0
  -12.6105    4.8720  -22.5430 C   0  0  0  0  0  0  0  0  0  0  0  0
  -11.4841    4.2800  -23.3371 C   0  0  0  0  0  0  0  0  0  0  0  0
  -11.4578    4.4312  -24.8293 C   0  0  0  0  0  0  0  0  0  0  0  0
   -4.9006   -0.3109  -21.9210 C   0  0  0  0  0  0  0  0  0  0  0  0
   -5.1295   -0.0098  -17.9705 C   0  0  0  0  0  0  0  0  0  0  0  0
   -5.4797   -0.3507  -19.3886 N   0  0  0  0  0  0  0  0  0  0  0  0
   -4.5504    0.0300  -20.5028 C   0  0  0  0  0  0  0  0  0  0  0  0
   -3.2709    0.7516  -20.1989 O   0  0  0  0  0  0  0  0  0  0  0  0
   -6.3194   -0.8243  -19.5881 H   0  0  0  0  0  0  0  0  0  0  0  0
 30 31  1  0  0  0
 31 32  1  0  0  0
 32 33  2  0  0  0
 32 29  1  0  0  0
 29  1  1  0  0  0
  1  2  1  0  0  0
  3  2  1  0  0  0
  3  4  1  0  0  0
  4  5  2  0  0  0
  4  6  1  0  0  0
  6 19  1  0  0  0
 19 20  2  0  0  0
 20 21  1  0  0  0
 21 22  2  0  0  0
 22 23  1  0  0  0
 23 24  2  0  0  0
 24 25  1  0  0  0
 25 26  2  0  0  0
 26 27  1  0  0  0
 27 28  2  0  0  0
  6  7  1  0  0  0
  7  8  1  0  0  0
  8  9  1  0  0  0
  3 10  1  0  0  0
 10 11  2  0  0  0
 11 12  1  0  0  0
 12 13  1  0  0  0
 12 14  2  0  0  0
 14 15  1  0  0  0
 15 16  2  0  0  0
 16 17  1  0  0  0
 17 18  2  0  0  0
 17  1  1  0  0  0
  8  3  1  0  0  0
 16 10  1  0  0  0
 28 19  1  0  0  0
 28 23  1  0  0  0
 31 34  1  0  0  0
M  END
> <minimizedAffinity>
-8.08339

> <CNNscore>
0.2327543944

> <CNNaffinity>
5.8683104515

> <CNN_VS>
1.3658750057

> <CNNaffinity_variance>
0.1535831094

$$$$



 34 38  0  0  0  0  0  0  0  0999 V2000
   -6.6031   -0.1348  -22.3344 N   0  0  0  0  0  0  0  0  0  0  0  0
   -7.0028    1.2482  -22.7559 C   0  0  0  0  0  0  0  0  0  0  0  0
   -8.4162    1.5256  -23.1745 C   0  0  0  0  0  0  0  0  0  0  0  0
   -9.7848    1.9517  -23.6165 C   0  0  0  0  0  0  0  0  0  0  0  0
  -10.8946    1.4873  -23.7867 O   0  0  0  0  0  0  0  0  0  0  0  0
   -9.7319    3.4148  -23.9431 N   0  0  0  0  0  0  0  0  0  0  0  0
   -8.3306    3.8929  -23.7031 C   0  0  0  0  0  0  0  0  0  0  0  0
   -7.5174    2.7254  -23.2280 C   0  0  0  0  0  0  0  0  0  0  0  0
   -6.0612    2.7528  -22.8695 C   0  0  0  0  0  0  0  0  0  0  0  0
   -9.4300    0.4200  -23.1717 C   0  0  0  0  0  0  0  0  0  0  0  0
  -10.8434    0.6974  -23.5904 C   0  0  0  0  0  0  0  0  0  0  0  0
  -11.8571   -0.4081  -23.5875 C   0  0  0  0  0  0  0  0  0  0  0  0
  -13.2706   -0.1307  -24.0062 Cl  0  0  0  0  0  0  0  0  0  0  0  0
  -11.4575   -1.7911  -23.1661 C   0  0  0  0  0  0  0  0  0  0  0  0
  -10.0441   -2.0685  -22.7474 C   0  0  0  0  0  0  0  0  0  0  0  0
   -9.0303   -0.9630  -22.7503 C   0  0  0  0  0  0  0  0  0  0  0  0
   -7.6168   -1.2403  -22.3316 C   0  0  0  0  0  0  0  0  0  0  0  0
   -7.2172   -2.6233  -21.9102 O   0  0  0  0  0  0  0  0  0  0  0  0
  -10.8790    4.2525  -24.4252 C   0  0  0  0  0  0  0  0  0  0  0  0
  -11.8243    4.8695  -23.4374 C   0  0  0  0  0  0  0  0  0  0  0  0
  -12.9714    5.7072  -23.9195 N   0  0  0  0  0  0  0  0  0  0  0  0
  -13.1730    5.9281  -25.3894 C   0  0  0  0  0  0  0  0  0  0  0  0
  -12.2277    5.3112  -26.3771 C   0  0  0  0  0  0  0  0  0  0  0  0
  -12.4294    5.5321  -27.8471 C   0  0  0  0  0  0  0  0  0  0  0  0
  -11.4840    4.9151  -28.8348 C   0  0  0  0  0  0  0  0  0  0  0  0
  -10.3369    4.0773  -28.3527 C   0  0  0  0  0  0  0  0  0  0  0  0
  -10.1353    3.8565  -26.8829 C   0  0  0  0  0  0  0  0  0  0  0  0
  -11.0806    4.4734  -25.8951 C   0  0  0  0  0  0  0  0  0  0  0  0
   -5.1896   -0.4122  -21.9158 C   0  0  0  0  0  0  0  0  0  0  0  0
   -5.1282    0.0004  -17.9692 C   0  0  0  0  0  0  0  0  0  0  0  0
   -5.5877   -0.3676  -19.3488 N   0  0  0  0  0  0  0  0  0  0  0  0
   -4.7301   -0.0441  -20.5361 C   0  0  0  0  0  0  0  0  0  0  0  0
   -3.4129    0.6474  -20.3439 O   0  0  0  0  0  0  0  0  0  0  0  0
   -6.4522   -0.8215  -19.4750 H   0  0  0  0  0  0  0  0  0  0  0  0
 30 31  1  0  0  0
 31 32  1  0  0  0
 32 33  2  0  0  0
 32 29  1  0  0  0
 29  1  1  0  0  0
  1  2  1  0  0  0
  3  2  1  0  0  0
  3  4  1  0  0  0
  4  5  2  0  0  0
  4  6  1  0  0  0
  6 19  1  0  0  0
 19 20  2  0  0  0
 20 21  1  0  0  0
 21 22  2  0  0  0
 22 23  1  0  0  0
 23 24  2  0  0  0
 24 25  1  0  0  0
 25 26  2  0  0  0
 26 27  1  0  0  0
 27 28  2  0  0  0
  6  7  1  0  0  0
  7  8  1  0  0  0
  8  9  1  0  0  0
  3 10  1  0  0  0
 10 11  2  0  0  0
 11 12  1  0  0  0
 12 13  1  0  0  0
 12 14  2  0  0  0
 14 15  1  0  0  0
 15 16  2  0  0  0
 16 17  1  0  0  0
 17 18  2  0  0  0
 17  1  1  0  0  0
  8  3  1  0  0  0
 16 10  1  0  0  0
 28 19  1  0  0  0
 28 23  1  0  0  0
 31 34  1  0  0  0
M  END
> <minimizedAffinity>
-8.23761

> <CNNscore>
0.2074242830

> <CNNaffinity>
5.9085102081

> <CNN_VS>
1.2255685329

> <CNNaffinity_variance>
0.1221939549

$$$$
