


 34 39  0  0  0  0  0  0  0  0999 V2000
   -5.8716   -5.5292  -22.8981 C   0  0  0  0  0  0  0  0  0  0  0  0
   -6.4125   -4.2002  -22.4608 C   0  0  0  0  0  0  0  0  0  0  0  0
   -5.5559   -3.5644  -21.4062 C   0  0  0  0  0  0  0  0  0  0  0  0
   -6.1751   -2.2491  -21.0370 N   0  0  0  0  0  0  0  0  0  0  0  0
   -7.4143   -2.0719  -21.8634 C   0  0  0  0  0  0  0  0  0  0  0  0
   -8.3437   -0.8953  -21.8178 O   0  0  0  0  0  0  0  0  0  0  0  0
   -7.5610   -3.2777  -22.7434 C   0  0  0  0  0  0  0  0  0  0  0  0
   -8.6482   -2.2592  -22.9181 C   0  0  0  0  0  0  0  0  0  0  0  0
   -9.7499   -2.5002  -23.9070 N   0  0  0  0  0  0  0  0  0  0  0  0
   -9.7646   -3.7599  -24.7212 C   0  0  0  0  0  0  0  0  0  0  0  0
  -10.8664   -4.0010  -25.7101 O   0  0  0  0  0  0  0  0  0  0  0  0
   -8.6774   -4.7786  -24.5465 C   0  0  0  0  0  0  0  0  0  0  0  0
   -8.6921   -6.0382  -25.3607 C   0  0  0  0  0  0  0  0  0  0  0  0
   -7.6050   -7.0568  -25.1860 C   0  0  0  0  0  0  0  0  0  0  0  0
   -6.5032   -6.8158  -24.1971 C   0  0  0  0  0  0  0  0  0  0  0  0
   -5.4160   -7.8344  -24.0224 F   0  0  0  0  0  0  0  0  0  0  0  0
   -6.4885   -5.5561  -23.3829 C   0  0  0  0  0  0  0  0  0  0  0  0
   -7.5756   -4.5375  -23.5576 C   0  0  0  0  0  0  0  0  0  0  0  0
   -5.6477   -1.2808  -20.0199 C   0  0  0  0  0  0  0  0  0  0  0  0
   -6.0963   -1.3749  -18.5917 C   0  0  0  0  0  0  0  0  0  0  0  0
   -5.5689   -0.4067  -17.5747 N   0  0  0  0  0  0  0  0  0  0  0  0
   -4.5930    0.6556  -17.9859 C   0  0  0  0  0  0  0  0  0  0  0  0
   -4.1444    0.7497  -19.4142 C   0  0  0  0  0  0  0  0  0  0  0  0
   -3.1685    1.8120  -19.8254 C   0  0  0  0  0  0  0  0  0  0  0  0
   -2.7200    1.9060  -21.2537 C   0  0  0  0  0  0  0  0  0  0  0  0
   -3.2474    0.9378  -22.2707 C   0  0  0  0  0  0  0  0  0  0  0  0
   -4.2233   -0.1245  -21.8594 C   0  0  0  0  0  0  0  0  0  0  0  0
   -4.6718   -0.2186  -20.4312 C   0  0  0  0  0  0  0  0  0  0  0  0
  -10.8371   -1.4816  -24.0817 C   0  0  0  0  0  0  0  0  0  0  0  0
  -12.1521   -1.6606  -23.3826 C   0  0  0  0  0  0  0  0  0  0  0  0
  -13.3372   -0.7469  -23.4859 C   0  0  0  0  0  0  0  0  0  0  0  0
  -14.4303   -1.3064  -22.6246 O   0  0  0  0  0  0  0  0  0  0  0  0
  -13.9209   -2.5660  -21.9888 C   0  0  0  0  0  0  0  0  0  0  0  0
  -12.5128   -2.7848  -22.4573 N   0  0  0  0  0  0  0  0  0  0  0  0
  2  1  1  0  0  0
  2  3  1  0  0  0
  3  4  1  0  0  0
  4 19  1  0  0  0
 19 20  2  0  0  0
 20 21  1  0  0  0
 21 22  2  0  0  0
 22 23  1  0  0  0
 23 24  2  0  0  0
 24 25  1  0  0  0
 25 26  2  0  0  0
 26 27  1  0  0  0
 27 28  2  0  0  0
  4  5  1  0  0  0
  5  6  2  0  0  0
  5  7  1  0  0  0
  7  8  1  0  0  0
  8  9  1  0  0  0
  9 29  1  0  0  0
 29 30  1  0  0  0
 30 31  2  0  0  0
 31 32  1  0  0  0
 32 33  1  0  0  0
 33 34  2  0  0  0
  9 10  1  0  0  0
 10 11  2  0  0  0
 10 12  1  0  0  0
 12 13  2  0  0  0
 13 14  1  0  0  0
 14 15  2  0  0  0
 15 16  1  0  0  0
 15 17  1  0  0  0
 17 18  2  0  0  0
  7  2  1  0  0  0
 34 30  1  0  0  0
 18 12  1  0  0  0
 28 19  1  0  0  0
 18  7  1  0  0  0
 28 23  1  0  0  0
M  END
> <minimizedAffinity>
-9.06339

> <CNNscore>
0.6643074751

> <CNNaffinity>
6.6508665085

> <CNN_VS>
4.4182205200

> <CNNaffinity_variance>
0.1827662289

$$$$



 34 39  0  0  0  0  0  0  0  0999 V2000
   -9.4899   -2.5177  -23.7314 C   0  0  0  0  0  0  0  0  0  0  0  0
   -8.2496   -2.7405  -22.9177 C   0  0  0  0  0  0  0  0  0  0  0  0
   -7.9872   -1.6066  -21.9714 C   0  0  0  0  0  0  0  0  0  0  0  0
   -6.7348   -1.9203  -21.2080 N   0  0  0  0  0  0  0  0  0  0  0  0
   -6.2231   -3.2482  -21.6824 C   0  0  0  0  0  0  0  0  0  0  0  0
   -4.9915   -3.9465  -21.1870 O   0  0  0  0  0  0  0  0  0  0  0  0
   -7.1594   -3.7551  -22.7390 C   0  0  0  0  0  0  0  0  0  0  0  0
   -6.0092   -4.6739  -22.4513 C   0  0  0  0  0  0  0  0  0  0  0  0
   -5.8782   -5.9682  -23.1981 N   0  0  0  0  0  0  0  0  0  0  0  0
   -6.8973   -6.3436  -24.2327 C   0  0  0  0  0  0  0  0  0  0  0  0
   -6.7663   -7.6378  -24.9796 O   0  0  0  0  0  0  0  0  0  0  0  0
   -8.0475   -5.4247  -24.5205 C   0  0  0  0  0  0  0  0  0  0  0  0
   -9.0666   -5.8001  -25.5551 C   0  0  0  0  0  0  0  0  0  0  0  0
  -10.2168   -4.8812  -25.8429 C   0  0  0  0  0  0  0  0  0  0  0  0
  -10.3478   -3.5870  -25.0960 C   0  0  0  0  0  0  0  0  0  0  0  0
  -11.4980   -2.6681  -25.3838 F   0  0  0  0  0  0  0  0  0  0  0  0
   -9.3287   -3.2116  -24.0614 C   0  0  0  0  0  0  0  0  0  0  0  0
   -8.1786   -4.1305  -23.7737 C   0  0  0  0  0  0  0  0  0  0  0  0
   -6.1046   -1.0578  -20.1550 C   0  0  0  0  0  0  0  0  0  0  0  0
   -6.6491   -1.0619  -18.7574 C   0  0  0  0  0  0  0  0  0  0  0  0
   -6.0189   -0.1993  -17.7044 N   0  0  0  0  0  0  0  0  0  0  0  0
   -4.8441    0.6674  -18.0491 C   0  0  0  0  0  0  0  0  0  0  0  0
   -4.2996    0.6715  -19.4468 C   0  0  0  0  0  0  0  0  0  0  0  0
   -3.1248    1.5383  -19.7915 C   0  0  0  0  0  0  0  0  0  0  0  0
   -2.5803    1.5423  -21.1892 C   0  0  0  0  0  0  0  0  0  0  0  0
   -3.2106    0.6797  -22.2421 C   0  0  0  0  0  0  0  0  0  0  0  0
   -4.3853   -0.1870  -21.8974 C   0  0  0  0  0  0  0  0  0  0  0  0
   -4.9298   -0.1911  -20.4998 C   0  0  0  0  0  0  0  0  0  0  0  0
   -4.7280   -6.8870  -22.9104 C   0  0  0  0  0  0  0  0  0  0  0  0
   -3.4535   -6.7607  -23.6913 C   0  0  0  0  0  0  0  0  0  0  0  0
   -3.3364   -6.3346  -25.1247 C   0  0  0  0  0  0  0  0  0  0  0  0
   -1.8830   -6.3488  -25.4952 O   0  0  0  0  0  0  0  0  0  0  0  0
   -1.1018   -6.7837  -24.2907 C   0  0  0  0  0  0  0  0  0  0  0  0
   -2.0725   -7.0382  -23.1759 N   0  0  0  0  0  0  0  0  0  0  0  0
  2  1  1  0  0  0
  2  3  1  0  0  0
  3  4  1  0  0  0
  4 19  1  0  0  0
 19 20  2  0  0  0
 20 21  1  0  0  0
 21 22  2  0  0  0
 22 23  1  0  0  0
 23 24  2  0  0  0
 24 25  1  0  0  0
 25 26  2  0  0  0
 26 27  1  0  0  0
 27 28  2  0  0  0
  4  5  1  0  0  0
  5  6  2  0  0  0
  5  7  1  0  0  0
  7  8  1  0  0  0
  8  9  1  0  0  0
  9 29  1  0  0  0
 29 30  1  0  0  0
 30 31  2  0  0  0
 31 32  1  0  0  0
 32 33  1  0  0  0
 33 34  2  0  0  0
  9 10  1  0  0  0
 10 11  2  0  0  0
 10 12  1  0  0  0
 12 13  2  0  0  0
 13 14  1  0  0  0
 14 15  2  0  0  0
 15 16  1  0  0  0
 15 17  1  0  0  0
 17 18  2  0  0  0
  7  2  1  0  0  0
 34 30  1  0  0  0
 18 12  1  0  0  0
 28 19  1  0  0  0
 18  7  1  0  0  0
 28 23  1  0  0  0
M  END
> <minimizedAffinity>
-8.31253

> <CNNscore>
0.5400583148

> <CNNaffinity>
6.4134559631

> <CNN_VS>
3.4636402130

> <CNNaffinity_variance>
0.0909506828

$$$$



 34 39  0  0  0  0  0  0  0  0999 V2000
  -10.8665   -2.6612  -24.5277 C   0  0  0  0  0  0  0  0  0  0  0  0
  -10.4531   -1.3645  -23.8969 C   0  0  0  0  0  0  0  0  0  0  0  0
  -11.5323   -0.3267  -23.9868 C   0  0  0  0  0  0  0  0  0  0  0  0
  -11.0271    0.9252  -23.3330 N   0  0  0  0  0  0  0  0  0  0  0  0
   -9.6356    0.6611  -22.8391 C   0  0  0  0  0  0  0  0  0  0  0  0
   -8.7537    1.6403  -22.1225 O   0  0  0  0  0  0  0  0  0  0  0  0
   -9.2808   -0.7541  -23.1876 C   0  0  0  0  0  0  0  0  0  0  0  0
   -8.1938   -0.0121  -22.4679 C   0  0  0  0  0  0  0  0  0  0  0  0
   -6.8949   -0.6966  -22.1610 N   0  0  0  0  0  0  0  0  0  0  0  0
   -6.6829   -2.1230  -22.5737 C   0  0  0  0  0  0  0  0  0  0  0  0
   -5.3840   -2.8075  -22.2668 O   0  0  0  0  0  0  0  0  0  0  0  0
   -7.7700   -2.8651  -23.2934 C   0  0  0  0  0  0  0  0  0  0  0  0
   -7.5580   -4.2915  -23.7061 C   0  0  0  0  0  0  0  0  0  0  0  0
   -8.6450   -5.0334  -24.4257 C   0  0  0  0  0  0  0  0  0  0  0  0
   -9.9440   -4.3489  -24.7326 C   0  0  0  0  0  0  0  0  0  0  0  0
  -11.0310   -5.0909  -25.4523 F   0  0  0  0  0  0  0  0  0  0  0  0
  -10.1559   -2.9225  -24.3199 C   0  0  0  0  0  0  0  0  0  0  0  0
   -9.0689   -2.1806  -23.6003 C   0  0  0  0  0  0  0  0  0  0  0  0
  -11.7810    2.2149  -23.1971 C   0  0  0  0  0  0  0  0  0  0  0  0
  -12.9083    2.3245  -22.2138 C   0  0  0  0  0  0  0  0  0  0  0  0
  -13.6622    3.6142  -22.0778 N   0  0  0  0  0  0  0  0  0  0  0  0
  -13.2886    4.7941  -22.9252 C   0  0  0  0  0  0  0  0  0  0  0  0
  -12.1612    4.6845  -23.9085 C   0  0  0  0  0  0  0  0  0  0  0  0
  -11.7876    5.8646  -24.7559 C   0  0  0  0  0  0  0  0  0  0  0  0
  -10.6602    5.7549  -25.7392 C   0  0  0  0  0  0  0  0  0  0  0  0
   -9.9064    4.4652  -25.8751 C   0  0  0  0  0  0  0  0  0  0  0  0
  -10.2800    3.2852  -25.0277 C   0  0  0  0  0  0  0  0  0  0  0  0
  -11.4073    3.3949  -24.0445 C   0  0  0  0  0  0  0  0  0  0  0  0
   -5.8078    0.0454  -21.4413 C   0  0  0  0  0  0  0  0  0  0  0  0
   -5.6436   -0.1165  -19.9592 C   0  0  0  0  0  0  0  0  0  0  0  0
   -6.1307   -1.2744  -19.1394 C   0  0  0  0  0  0  0  0  0  0  0  0
   -5.7516   -1.0224  -17.7102 O   0  0  0  0  0  0  0  0  0  0  0  0
   -5.0302    0.2912  -17.6466 C   0  0  0  0  0  0  0  0  0  0  0  0
   -4.9635    0.8511  -19.0366 N   0  0  0  0  0  0  0  0  0  0  0  0
  2  1  1  0  0  0
  2  3  1  0  0  0
  3  4  1  0  0  0
  4 19  1  0  0  0
 19 20  2  0  0  0
 20 21  1  0  0  0
 21 22  2  0  0  0
 22 23  1  0  0  0
 23 24  2  0  0  0
 24 25  1  0  0  0
 25 26  2  0  0  0
 26 27  1  0  0  0
 27 28  2  0  0  0
  4  5  1  0  0  0
  5  6  2  0  0  0
  5  7  1  0  0  0
  7  8  1  0  0  0
  8  9  1  0  0  0
  9 29  1  0  0  0
 29 30  1  0  0  0
 30 31  2  0  0  0
 31 32  1  0  0  0
 32 33  1  0  0  0
 33 34  2  0  0  0
  9 10  1  0  0  0
 10 11  2  0  0  0
 10 12  1  0  0  0
 12 13  2  0  0  0
 13 14  1  0  0  0
 14 15  2  0  0  0
 15 16  1  0  0  0
 15 17  1  0  0  0
 17 18  2  0  0  0
  7  2  1  0  0  0
 34 30  1  0  0  0
 18 12  1  0  0  0
 28 19  1  0  0  0
 18  7  1  0  0  0
 28 23  1  0  0  0
M  END
> <minimizedAffinity>
-8.32099

> <CNNscore>
0.4931281209

> <CNNaffinity>
6.4516525269

> <CNN_VS>
3.1814913750

> <CNNaffinity_variance>
0.0679323971

$$$$



 34 39  0  0  0  0  0  0  0  0999 V2000
   -7.2639    0.3026  -21.4142 C   0  0  0  0  0  0  0  0  0  0  0  0
   -8.4981    0.1451  -22.2521 C   0  0  0  0  0  0  0  0  0  0  0  0
   -9.2552    1.4332  -22.3848 C   0  0  0  0  0  0  0  0  0  0  0  0
  -10.4643    1.1747  -23.2342 N   0  0  0  0  0  0  0  0  0  0  0  0
  -10.4543   -0.2731  -23.6264 C   0  0  0  0  0  0  0  0  0  0  0  0
  -11.4796   -0.9633  -24.4763 O   0  0  0  0  0  0  0  0  0  0  0  0
   -9.2392   -0.9095  -23.0194 C   0  0  0  0  0  0  0  0  0  0  0  0
  -10.0846   -1.8524  -23.8231 C   0  0  0  0  0  0  0  0  0  0  0  0
   -9.6813   -3.2908  -23.9595 N   0  0  0  0  0  0  0  0  0  0  0  0
   -8.4327   -3.7861  -23.2921 C   0  0  0  0  0  0  0  0  0  0  0  0
   -8.0294   -5.2244  -23.4285 O   0  0  0  0  0  0  0  0  0  0  0  0
   -7.5872   -2.8431  -22.4883 C   0  0  0  0  0  0  0  0  0  0  0  0
   -6.3385   -3.3385  -21.8209 C   0  0  0  0  0  0  0  0  0  0  0  0
   -5.4931   -2.3955  -21.0172 C   0  0  0  0  0  0  0  0  0  0  0  0
   -5.8964   -0.9572  -20.8808 C   0  0  0  0  0  0  0  0  0  0  0  0
   -5.0509   -0.0142  -20.0770 F   0  0  0  0  0  0  0  0  0  0  0  0
   -7.1451   -0.4618  -21.5482 C   0  0  0  0  0  0  0  0  0  0  0  0
   -7.9904   -1.4048  -22.3519 C   0  0  0  0  0  0  0  0  0  0  0  0
  -11.5012    2.1864  -23.6231 C   0  0  0  0  0  0  0  0  0  0  0  0
  -12.9234    2.0111  -23.1801 C   0  0  0  0  0  0  0  0  0  0  0  0
  -13.9603    3.0227  -23.5690 N   0  0  0  0  0  0  0  0  0  0  0  0
  -13.5749    4.2098  -24.4011 C   0  0  0  0  0  0  0  0  0  0  0  0
  -12.1526    4.3852  -24.8442 C   0  0  0  0  0  0  0  0  0  0  0  0
  -11.7672    5.5723  -25.6763 C   0  0  0  0  0  0  0  0  0  0  0  0
  -10.3449    5.7476  -26.1193 C   0  0  0  0  0  0  0  0  0  0  0  0
   -9.3080    4.7359  -25.7303 C   0  0  0  0  0  0  0  0  0  0  0  0
   -9.6934    3.5488  -24.8983 C   0  0  0  0  0  0  0  0  0  0  0  0
  -11.1157    3.3735  -24.4552 C   0  0  0  0  0  0  0  0  0  0  0  0
  -10.5268   -4.2337  -24.7633 C   0  0  0  0  0  0  0  0  0  0  0  0
  -10.0099   -4.7861  -26.0585 C   0  0  0  0  0  0  0  0  0  0  0  0
   -9.2659   -4.0179  -27.1103 C   0  0  0  0  0  0  0  0  0  0  0  0
   -8.9425   -4.9607  -28.2312 O   0  0  0  0  0  0  0  0  0  0  0  0
   -9.4866   -6.3117  -27.8722 C   0  0  0  0  0  0  0  0  0  0  0  0
  -10.1463   -6.2038  -26.5294 N   0  0  0  0  0  0  0  0  0  0  0  0
  2  1  1  0  0  0
  2  3  1  0  0  0
  3  4  1  0  0  0
  4 19  1  0  0  0
 19 20  2  0  0  0
 20 21  1  0  0  0
 21 22  2  0  0  0
 22 23  1  0  0  0
 23 24  2  0  0  0
 24 25  1  0  0  0
 25 26  2  0  0  0
 26 27  1  0  0  0
 27 28  2  0  0  0
  4  5  1  0  0  0
  5  6  2  0  0  0
  5  7  1  0  0  0
  7  8  1  0  0  0
  8  9  1  0  0  0
  9 29  1  0  0  0
 29 30  1  0  0  0
 30 31  2  0  0  0
 31 32  1  0  0  0
 32 33  1  0  0  0
 33 34  2  0  0  0
  9 10  1  0  0  0
 10 11  2  0  0  0
 10 12  1  0  0  0
 12 13  2  0  0  0
 13 14  1  0  0  0
 14 15  2  0  0  0
 15 16  1  0  0  0
 15 17  1  0  0  0
 17 18  2  0  0  0
  7  2  1  0  0  0
 34 30  1  0  0  0
 18 12  1  0  0  0
 28 19  1  0  0  0
 18  7  1  0  0  0
 28 23  1  0  0  0
M  END
> <minimizedAffinity>
-9.00430

> <CNNscore>
0.4813012779

> <CNNaffinity>
6.2686233521

> <CNN_VS>
3.0170965195

> <CNNaffinity_variance>
0.2158596516

$$$$



 34 39  0  0  0  0  0  0  0  0999 V2000
  -10.5098   -4.0922  -25.2530 C   0  0  0  0  0  0  0  0  0  0  0  0
  -10.0049   -2.9129  -24.4755 C   0  0  0  0  0  0  0  0  0  0  0  0
  -10.9086   -1.7232  -24.6094 C   0  0  0  0  0  0  0  0  0  0  0  0
  -10.3228   -0.6030  -23.8019 N   0  0  0  0  0  0  0  0  0  0  0  0
   -9.0571   -1.1005  -23.1689 C   0  0  0  0  0  0  0  0  0  0  0  0
   -8.1476   -0.3093  -22.2763 O   0  0  0  0  0  0  0  0  0  0  0  0
   -8.8607   -2.5281  -23.5852 C   0  0  0  0  0  0  0  0  0  0  0  0
   -7.7832   -2.0016  -22.6843 C   0  0  0  0  0  0  0  0  0  0  0  0
   -6.6428   -2.8887  -22.2811 N   0  0  0  0  0  0  0  0  0  0  0  0
   -6.5798   -4.3023  -22.7789 C   0  0  0  0  0  0  0  0  0  0  0  0
   -5.4394   -5.1893  -22.3757 O   0  0  0  0  0  0  0  0  0  0  0  0
   -7.6574   -4.8288  -23.6799 C   0  0  0  0  0  0  0  0  0  0  0  0
   -7.5944   -6.2424  -24.1776 C   0  0  0  0  0  0  0  0  0  0  0  0
   -8.6719   -6.7689  -25.0785 C   0  0  0  0  0  0  0  0  0  0  0  0
   -9.8124   -5.8819  -25.4817 C   0  0  0  0  0  0  0  0  0  0  0  0
  -10.8899   -6.4085  -26.3827 F   0  0  0  0  0  0  0  0  0  0  0  0
   -9.8753   -4.4683  -24.9840 C   0  0  0  0  0  0  0  0  0  0  0  0
   -8.7978   -3.9418  -24.0830 C   0  0  0  0  0  0  0  0  0  0  0  0
  -10.9011    0.7730  -23.6534 C   0  0  0  0  0  0  0  0  0  0  0  0
  -12.1490    0.9791  -22.8472 C   0  0  0  0  0  0  0  0  0  0  0  0
  -12.7273    2.3551  -22.6987 N   0  0  0  0  0  0  0  0  0  0  0  0
  -12.0576    3.5251  -23.3564 C   0  0  0  0  0  0  0  0  0  0  0  0
  -10.8095    3.3190  -24.1626 C   0  0  0  0  0  0  0  0  0  0  0  0
  -10.1397    4.4891  -24.8203 C   0  0  0  0  0  0  0  0  0  0  0  0
   -8.8917    4.2829  -25.6264 C   0  0  0  0  0  0  0  0  0  0  0  0
   -8.3135    2.9069  -25.7749 C   0  0  0  0  0  0  0  0  0  0  0  0
   -8.9833    1.7369  -25.1172 C   0  0  0  0  0  0  0  0  0  0  0  0
  -10.2312    1.9430  -24.3111 C   0  0  0  0  0  0  0  0  0  0  0  0
   -5.5652   -2.3621  -21.3801 C   0  0  0  0  0  0  0  0  0  0  0  0
   -5.9269   -1.5340  -20.1829 C   0  0  0  0  0  0  0  0  0  0  0  0
   -7.2577   -1.5184  -19.4912 C   0  0  0  0  0  0  0  0  0  0  0  0
   -7.1746   -0.5508  -18.3480 O   0  0  0  0  0  0  0  0  0  0  0  0
   -5.7923    0.0316  -18.3332 C   0  0  0  0  0  0  0  0  0  0  0  0
   -5.0212   -0.5760  -19.4673 N   0  0  0  0  0  0  0  0  0  0  0  0
  2  1  1  0  0  0
  2  3  1  0  0  0
  3  4  1  0  0  0
  4 19  1  0  0  0
 19 20  2  0  0  0
 20 21  1  0  0  0
 21 22  2  0  0  0
 22 23  1  0  0  0
 23 24  2  0  0  0
 24 25  1  0  0  0
 25 26  2  0  0  0
 26 27  1  0  0  0
 27 28  2  0  0  0
  4  5  1  0  0  0
  5  6  2  0  0  0
  5  7  1  0  0  0
  7  8  1  0  0  0
  8  9  1  0  0  0
  9 29  1  0  0  0
 29 30  1  0  0  0
 30 31  2  0  0  0
 31 32  1  0  0  0
 32 33  1  0  0  0
 33 34  2  0  0  0
  9 10  1  0  0  0
 10 11  2  0  0  0
 10 12  1  0  0  0
 12 13  2  0  0  0
 13 14  1  0  0  0
 14 15  2  0  0  0
 15 16  1  0  0  0
 15 17  1  0  0  0
 17 18  2  0  0  0
  7  2  1  0  0  0
 34 30  1  0  0  0
 18 12  1  0  0  0
 28 19  1  0  0  0
 18  7  1  0  0  0
 28 23  1  0  0  0
M  END
> <minimizedAffinity>
-8.23100

> <CNNscore>
0.4674467742

> <CNNaffinity>
6.5095930099

> <CNN_VS>
3.0428881645

> <CNNaffinity_variance>
0.1539428532

$$$$



 34 39  0  0  0  0  0  0  0  0999 V2000
   -5.6108    4.0138  -24.7976 C   0  0  0  0  0  0  0  0  0  0  0  0
   -6.5566    3.2002  -23.9647 C   0  0  0  0  0  0  0  0  0  0  0  0
   -7.9829    3.3871  -24.3900 C   0  0  0  0  0  0  0  0  0  0  0  0
   -8.8458    2.5386  -23.5038 N   0  0  0  0  0  0  0  0  0  0  0  0
   -7.9528    1.8273  -22.5308 C   0  0  0  0  0  0  0  0  0  0  0  0
   -8.3967    0.8744  -21.4608 O   0  0  0  0  0  0  0  0  0  0  0  0
   -6.5380    2.2363  -22.8157 C   0  0  0  0  0  0  0  0  0  0  0  0
   -6.6756    1.2654  -21.6806 C   0  0  0  0  0  0  0  0  0  0  0  0
   -5.4564    0.7932  -20.9455 N   0  0  0  0  0  0  0  0  0  0  0  0
   -4.0994    1.2920  -21.3454 C   0  0  0  0  0  0  0  0  0  0  0  0
   -2.8801    0.8198  -20.6103 O   0  0  0  0  0  0  0  0  0  0  0  0
   -3.9618    2.2629  -22.4805 C   0  0  0  0  0  0  0  0  0  0  0  0
   -2.6049    2.7617  -22.8805 C   0  0  0  0  0  0  0  0  0  0  0  0
   -2.4672    3.7326  -24.0155 C   0  0  0  0  0  0  0  0  0  0  0  0
   -3.6865    4.2047  -24.7506 C   0  0  0  0  0  0  0  0  0  0  0  0
   -3.5489    5.1757  -25.8857 F   0  0  0  0  0  0  0  0  0  0  0  0
   -5.0434    3.7060  -24.3507 C   0  0  0  0  0  0  0  0  0  0  0  0
   -5.1811    2.7351  -23.2156 C   0  0  0  0  0  0  0  0  0  0  0  0
  -10.3394    2.4218  -23.5776 C   0  0  0  0  0  0  0  0  0  0  0  0
  -11.1874    3.6584  -23.6169 C   0  0  0  0  0  0  0  0  0  0  0  0
  -12.6810    3.5416  -23.6907 N   0  0  0  0  0  0  0  0  0  0  0  0
  -13.3266    2.1881  -23.7251 C   0  0  0  0  0  0  0  0  0  0  0  0
  -12.4786    0.9514  -23.6858 C   0  0  0  0  0  0  0  0  0  0  0  0
  -13.1243   -0.4021  -23.7202 C   0  0  0  0  0  0  0  0  0  0  0  0
  -12.2762   -1.6388  -23.6809 C   0  0  0  0  0  0  0  0  0  0  0  0
  -10.7827   -1.5219  -23.6071 C   0  0  0  0  0  0  0  0  0  0  0  0
  -10.1371   -0.1684  -23.5727 C   0  0  0  0  0  0  0  0  0  0  0  0
  -10.9850    1.0682  -23.6120 C   0  0  0  0  0  0  0  0  0  0  0  0
   -5.5940   -0.1777  -19.8104 C   0  0  0  0  0  0  0  0  0  0  0  0
   -5.5355   -1.6532  -20.0742 C   0  0  0  0  0  0  0  0  0  0  0  0
   -5.2867   -2.7224  -19.0521 C   0  0  0  0  0  0  0  0  0  0  0  0
   -5.3129   -4.0485  -19.7526 O   0  0  0  0  0  0  0  0  0  0  0  0
   -5.5780   -3.7988  -21.2078 C   0  0  0  0  0  0  0  0  0  0  0  0
   -5.7156   -2.3184  -21.4065 N   0  0  0  0  0  0  0  0  0  0  0  0
  2  1  1  0  0  0
  2  3  1  0  0  0
  3  4  1  0  0  0
  4 19  1  0  0  0
 19 20  2  0  0  0
 20 21  1  0  0  0
 21 22  2  0  0  0
 22 23  1  0  0  0
 23 24  2  0  0  0
 24 25  1  0  0  0
 25 26  2  0  0  0
 26 27  1  0  0  0
 27 28  2  0  0  0
  4  5  1  0  0  0
  5  6  2  0  0  0
  5  7  1  0  0  0
  7  8  1  0  0  0
  8  9  1  0  0  0
  9 29  1  0  0  0
 29 30  1  0  0  0
 30 31  2  0  0  0
 31 32  1  0  0  0
 32 33  1  0  0  0
 33 34  2  0  0  0
  9 10  1  0  0  0
 10 11  2  0  0  0
 10 12  1  0  0  0
 12 13  2  0  0  0
 13 14  1  0  0  0
 14 15  2  0  0  0
 15 16  1  0  0  0
 15 17  1  0  0  0
 17 18  2  0  0  0
  7  2  1  0  0  0
 34 30  1  0  0  0
 18 12  1  0  0  0
 28 19  1  0  0  0
 18  7  1  0  0  0
 28 23  1  0  0  0
M  END
> <minimizedAffinity>
-7.44135

> <CNNscore>
0.3545874953

> <CNNaffinity>
6.0262451172

> <CNN_VS>
2.1368310452

> <CNNaffinity_variance>
0.0601591840

$$$$



 34 39  0  0  0  0  0  0  0  0999 V2000
   -7.2565   -3.0976  -22.7875 C   0  0  0  0  0  0  0  0  0  0  0  0
   -6.9841   -1.6411  -22.5533 C   0  0  0  0  0  0  0  0  0  0  0  0
   -5.6265   -1.4121  -21.9580 C   0  0  0  0  0  0  0  0  0  0  0  0
   -5.4492    0.0645  -21.7626 N   0  0  0  0  0  0  0  0  0  0  0  0
   -6.6973    0.7480  -22.2372 C   0  0  0  0  0  0  0  0  0  0  0  0
   -6.9519    2.2262  -22.2253 O   0  0  0  0  0  0  0  0  0  0  0  0
   -7.6459   -0.3061  -22.7259 C   0  0  0  0  0  0  0  0  0  0  0  0
   -8.1773    1.0921  -22.8380 C   0  0  0  0  0  0  0  0  0  0  0  0
   -9.5471    1.3310  -23.4005 N   0  0  0  0  0  0  0  0  0  0  0  0
  -10.3856    0.1717  -23.8510 C   0  0  0  0  0  0  0  0  0  0  0  0
  -11.7555    0.4106  -24.4135 O   0  0  0  0  0  0  0  0  0  0  0  0
   -9.8542   -1.2266  -23.7389 C   0  0  0  0  0  0  0  0  0  0  0  0
  -10.6927   -2.3859  -24.1894 C   0  0  0  0  0  0  0  0  0  0  0  0
  -10.1613   -3.7841  -24.0773 C   0  0  0  0  0  0  0  0  0  0  0  0
   -8.7915   -4.0230  -23.5148 C   0  0  0  0  0  0  0  0  0  0  0  0
   -8.2601   -5.4213  -23.4027 F   0  0  0  0  0  0  0  0  0  0  0  0
   -7.9530   -2.8637  -23.0643 C   0  0  0  0  0  0  0  0  0  0  0  0
   -8.4844   -1.4655  -23.1764 C   0  0  0  0  0  0  0  0  0  0  0  0
   -4.2368    0.7392  -21.1927 C   0  0  0  0  0  0  0  0  0  0  0  0
   -4.2413    1.2125  -19.7694 C   0  0  0  0  0  0  0  0  0  0  0  0
   -3.0289    1.8872  -19.1995 N   0  0  0  0  0  0  0  0  0  0  0  0
   -1.8119    2.0885  -20.0530 C   0  0  0  0  0  0  0  0  0  0  0  0
   -1.8074    1.6152  -21.4764 C   0  0  0  0  0  0  0  0  0  0  0  0
   -0.5904    1.8166  -22.3298 C   0  0  0  0  0  0  0  0  0  0  0  0
   -0.5859    1.3433  -23.7532 C   0  0  0  0  0  0  0  0  0  0  0  0
   -1.7983    0.6686  -24.3230 C   0  0  0  0  0  0  0  0  0  0  0  0
   -3.0153    0.4672  -23.4695 C   0  0  0  0  0  0  0  0  0  0  0  0
   -3.0198    0.9405  -22.0463 C   0  0  0  0  0  0  0  0  0  0  0  0
  -10.0785    2.7293  -23.5126 C   0  0  0  0  0  0  0  0  0  0  0  0
  -11.5570    2.9762  -23.4593 C   0  0  0  0  0  0  0  0  0  0  0  0
  -12.4591    2.6798  -22.2982 C   0  0  0  0  0  0  0  0  0  0  0  0
  -13.8527    3.0834  -22.6790 O   0  0  0  0  0  0  0  0  0  0  0  0
  -13.8119    3.6292  -24.0757 C   0  0  0  0  0  0  0  0  0  0  0  0
  -12.3931    3.5630  -24.5579 N   0  0  0  0  0  0  0  0  0  0  0  0
  2  1  1  0  0  0
  2  3  1  0  0  0
  3  4  1  0  0  0
  4 19  1  0  0  0
 19 20  2  0  0  0
 20 21  1  0  0  0
 21 22  2  0  0  0
 22 23  1  0  0  0
 23 24  2  0  0  0
 24 25  1  0  0  0
 25 26  2  0  0  0
 26 27  1  0  0  0
 27 28  2  0  0  0
  4  5  1  0  0  0
  5  6  2  0  0  0
  5  7  1  0  0  0
  7  8  1  0  0  0
  8  9  1  0  0  0
  9 29  1  0  0  0
 29 30  1  0  0  0
 30 31  2  0  0  0
 31 32  1  0  0  0
 32 33  1  0  0  0
 33 34  2  0  0  0
  9 10  1  0  0  0
 10 11  2  0  0  0
 10 12  1  0  0  0
 12 13  2  0  0  0
 13 14  1  0  0  0
 14 15  2  0  0  0
 15 16  1  0  0  0
 15 17  1  0  0  0
 17 18  2  0  0  0
  7  2  1  0  0  0
 34 30  1  0  0  0
 18 12  1  0  0  0
 28 19  1  0  0  0
 18  7  1  0  0  0
 28 23  1  0  0  0
M  END
> <minimizedAffinity>
-7.90521

> <CNNscore>
0.3466466069

> <CNNaffinity>
6.1728062630

> <CNN_VS>
2.1397824287

> <CNNaffinity_variance>
0.1695528924

$$$$



 34 39  0  0  0  0  0  0  0  0999 V2000
   -6.8062    1.7921  -21.9988 C   0  0  0  0  0  0  0  0  0  0  0  0
   -8.0895    1.3885  -22.6624 C   0  0  0  0  0  0  0  0  0  0  0  0
   -8.9606    2.5711  -22.9670 C   0  0  0  0  0  0  0  0  0  0  0  0
  -10.2114    2.0683  -23.6247 N   0  0  0  0  0  0  0  0  0  0  0  0
  -10.1134    0.5749  -23.7265 C   0  0  0  0  0  0  0  0  0  0  0  0
  -11.1456   -0.3380  -24.3191 O   0  0  0  0  0  0  0  0  0  0  0  0
   -8.8020    0.1548  -23.1318 C   0  0  0  0  0  0  0  0  0  0  0  0
   -9.6305   -0.9840  -23.6480 C   0  0  0  0  0  0  0  0  0  0  0  0
   -9.1210   -2.3908  -23.5414 N   0  0  0  0  0  0  0  0  0  0  0  0
   -7.7831   -2.6588  -22.9185 C   0  0  0  0  0  0  0  0  0  0  0  0
   -7.2736   -4.0656  -22.8118 O   0  0  0  0  0  0  0  0  0  0  0  0
   -6.9545   -1.5199  -22.4022 C   0  0  0  0  0  0  0  0  0  0  0  0
   -5.6166   -1.7878  -21.7792 C   0  0  0  0  0  0  0  0  0  0  0  0
   -4.7881   -0.6490  -21.2630 C   0  0  0  0  0  0  0  0  0  0  0  0
   -5.2975    0.7578  -21.3696 C   0  0  0  0  0  0  0  0  0  0  0  0
   -4.4690    1.8967  -20.8533 F   0  0  0  0  0  0  0  0  0  0  0  0
   -6.6355    1.0258  -21.9925 C   0  0  0  0  0  0  0  0  0  0  0  0
   -7.4640   -0.1131  -22.5088 C   0  0  0  0  0  0  0  0  0  0  0  0
  -11.3588    2.9108  -24.0976 C   0  0  0  0  0  0  0  0  0  0  0  0
  -12.6578    2.8977  -23.3479 C   0  0  0  0  0  0  0  0  0  0  0  0
  -13.8052    3.7402  -23.8208 N   0  0  0  0  0  0  0  0  0  0  0  0
  -13.6535    4.5958  -25.0434 C   0  0  0  0  0  0  0  0  0  0  0  0
  -12.3544    4.6089  -25.7932 C   0  0  0  0  0  0  0  0  0  0  0  0
  -12.2027    5.4646  -27.0159 C   0  0  0  0  0  0  0  0  0  0  0  0
  -10.9035    5.4776  -27.7656 C   0  0  0  0  0  0  0  0  0  0  0  0
   -9.7562    4.6350  -27.2927 C   0  0  0  0  0  0  0  0  0  0  0  0
   -9.9079    3.7794  -26.0700 C   0  0  0  0  0  0  0  0  0  0  0  0
  -11.2070    3.7664  -25.3203 C   0  0  0  0  0  0  0  0  0  0  0  0
   -9.9496   -3.5297  -24.0577 C   0  0  0  0  0  0  0  0  0  0  0  0
   -9.7095   -4.0667  -25.4375 C   0  0  0  0  0  0  0  0  0  0  0  0
   -8.8550   -3.4319  -26.4943 C   0  0  0  0  0  0  0  0  0  0  0  0
   -8.8991   -4.3057  -27.7127 O   0  0  0  0  0  0  0  0  0  0  0  0
   -9.7809   -5.4805  -27.4090 C   0  0  0  0  0  0  0  0  0  0  0  0
  -10.2817   -5.3328  -26.0028 N   0  0  0  0  0  0  0  0  0  0  0  0
  2  1  1  0  0  0
  2  3  1  0  0  0
  3  4  1  0  0  0
  4 19  1  0  0  0
 19 20  2  0  0  0
 20 21  1  0  0  0
 21 22  2  0  0  0
 22 23  1  0  0  0
 23 24  2  0  0  0
 24 25  1  0  0  0
 25 26  2  0  0  0
 26 27  1  0  0  0
 27 28  2  0  0  0
  4  5  1  0  0  0
  5  6  2  0  0  0
  5  7  1  0  0  0
  7  8  1  0  0  0
  8  9  1  0  0  0
  9 29  1  0  0  0
 29 30  1  0  0  0
 30 31  2  0  0  0
 31 32  1  0  0  0
 32 33  1  0  0  0
 33 34  2  0  0  0
  9 10  1  0  0  0
 10 11  2  0  0  0
 10 12  1  0  0  0
 12 13  2  0  0  0
 13 14  1  0  0  0
 14 15  2  0  0  0
 15 16  1  0  0  0
 15 17  1  0  0  0
 17 18  2  0  0  0
  7  2  1  0  0  0
 34 30  1  0  0  0
 18 12  1  0  0  0
 28 19  1  0  0  0
 18  7  1  0  0  0
 28 23  1  0  0  0
M  END
> <minimizedAffinity>
-7.86159

> <CNNscore>
0.2237414420

> <CNNaffinity>
5.9434099197

> <CNN_VS>
1.3297871351

> <CNNaffinity_variance>
0.2771631479

$$$$



 34 39  0  0  0  0  0  0  0  0999 V2000
   -7.3751   -5.1269  -23.2516 C   0  0  0  0  0  0  0  0  0  0  0  0
   -7.1201   -3.6565  -23.1003 C   0  0  0  0  0  0  0  0  0  0  0  0
   -6.6546   -3.3063  -21.7180 C   0  0  0  0  0  0  0  0  0  0  0  0
   -6.4281   -1.8244  -21.6667 N   0  0  0  0  0  0  0  0  0  0  0  0
   -6.7536   -1.2587  -23.0173 C   0  0  0  0  0  0  0  0  0  0  0  0
   -6.6666    0.1857  -23.4125 O   0  0  0  0  0  0  0  0  0  0  0  0
   -7.1813   -2.3910  -23.9033 C   0  0  0  0  0  0  0  0  0  0  0  0
   -7.1930   -1.0510  -24.5773 C   0  0  0  0  0  0  0  0  0  0  0  0
   -7.6088   -0.9378  -26.0141 N   0  0  0  0  0  0  0  0  0  0  0  0
   -8.0129   -2.1645  -26.7769 C   0  0  0  0  0  0  0  0  0  0  0  0
   -8.4287   -2.0512  -28.2136 O   0  0  0  0  0  0  0  0  0  0  0  0
   -8.0012   -3.5045  -26.1029 C   0  0  0  0  0  0  0  0  0  0  0  0
   -8.4053   -4.7312  -26.8656 C   0  0  0  0  0  0  0  0  0  0  0  0
   -8.3935   -6.0712  -26.1917 C   0  0  0  0  0  0  0  0  0  0  0  0
   -7.9777   -6.1845  -24.7549 C   0  0  0  0  0  0  0  0  0  0  0  0
   -7.9660   -7.5245  -24.0809 F   0  0  0  0  0  0  0  0  0  0  0  0
   -7.5736   -4.9578  -23.9921 C   0  0  0  0  0  0  0  0  0  0  0  0
   -7.5854   -3.6178  -24.6661 C   0  0  0  0  0  0  0  0  0  0  0  0
   -5.9585   -1.0449  -20.4743 C   0  0  0  0  0  0  0  0  0  0  0  0
   -6.6809   -1.1687  -19.1656 C   0  0  0  0  0  0  0  0  0  0  0  0
   -6.2113   -0.3892  -17.9731 N   0  0  0  0  0  0  0  0  0  0  0  0
   -5.0194    0.5139  -18.0894 C   0  0  0  0  0  0  0  0  0  0  0  0
   -4.2970    0.6377  -19.3982 C   0  0  0  0  0  0  0  0  0  0  0  0
   -3.1050    1.5409  -19.5145 C   0  0  0  0  0  0  0  0  0  0  0  0
   -2.3827    1.6646  -20.8233 C   0  0  0  0  0  0  0  0  0  0  0  0
   -2.8523    0.8852  -22.0157 C   0  0  0  0  0  0  0  0  0  0  0  0
   -4.0443   -0.0180  -21.8994 C   0  0  0  0  0  0  0  0  0  0  0  0
   -4.7666   -0.1417  -20.5907 C   0  0  0  0  0  0  0  0  0  0  0  0
   -7.6205    0.4023  -26.6881 C   0  0  0  0  0  0  0  0  0  0  0  0
   -8.4155    1.5304  -26.1005 C   0  0  0  0  0  0  0  0  0  0  0  0
   -8.2459    2.9868  -26.4166 C   0  0  0  0  0  0  0  0  0  0  0  0
   -9.2452    3.7567  -25.6051 O   0  0  0  0  0  0  0  0  0  0  0  0
  -10.0325    2.7761  -24.7874 C   0  0  0  0  0  0  0  0  0  0  0  0
   -9.5197    1.4002  -25.0936 N   0  0  0  0  0  0  0  0  0  0  0  0
  2  1  1  0  0  0
  2  3  1  0  0  0
  3  4  1  0  0  0
  4 19  1  0  0  0
 19 20  2  0  0  0
 20 21  1  0  0  0
 21 22  2  0  0  0
 22 23  1  0  0  0
 23 24  2  0  0  0
 24 25  1  0  0  0
 25 26  2  0  0  0
 26 27  1  0  0  0
 27 28  2  0  0  0
  4  5  1  0  0  0
  5  6  2  0  0  0
  5  7  1  0  0  0
  7  8  1  0  0  0
  8  9  1  0  0  0
  9 29  1  0  0  0
 29 30  1  0  0  0
 30 31  2  0  0  0
 31 32  1  0  0  0
 32 33  1  0  0  0
 33 34  2  0  0  0
  9 10  1  0  0  0
 10 11  2  0  0  0
 10 12  1  0  0  0
 12 13  2  0  0  0
 13 14  1  0  0  0
 14 15  2  0  0  0
 15 16  1  0  0  0
 15 17  1  0  0  0
 17 18  2  0  0  0
  7  2  1  0  0  0
 34 30  1  0  0  0
 18 12  1  0  0  0
 28 19  1  0  0  0
 18  7  1  0  0  0
 28 23  1  0  0  0
M  END
> <minimizedAffinity>
-8.29118

> <CNNscore>
0.2074033916

> <CNNaffinity>
6.0771112442

> <CNN_VS>
1.2604135275

> <CNNaffinity_variance>
0.1361283213

$$$$
