


 34 39  0  0  0  0  0  0  0  0999 V2000
    7.5163   -3.3811   23.4856 C   0  0  0  0  0  0  0  0  0  0  0  0
    7.7091   -2.1043   22.7221 C   0  0  0  0  0  0  0  0  0  0  0  0
    6.5913   -1.8546   21.7536 C   0  0  0  0  0  0  0  0  0  0  0  0
    6.8731   -0.5638   21.0434 N   0  0  0  0  0  0  0  0  0  0  0  0
    8.1650   -0.0158   21.5730 C   0  0  0  0  0  0  0  0  0  0  0  0
    8.8245    1.2603   21.1410 O   0  0  0  0  0  0  0  0  0  0  0  0
    8.6817   -0.9679   22.6106 C   0  0  0  0  0  0  0  0  0  0  0  0
    9.5592    0.2284   22.3894 C   0  0  0  0  0  0  0  0  0  0  0  0
   10.8261    0.3852   23.1771 N   0  0  0  0  0  0  0  0  0  0  0  0
   11.2155   -0.6543   24.1860 C   0  0  0  0  0  0  0  0  0  0  0  0
   12.4824   -0.4974   24.9736 O   0  0  0  0  0  0  0  0  0  0  0  0
   10.3380   -1.8506   24.4072 C   0  0  0  0  0  0  0  0  0  0  0  0
   10.7274   -2.8900   25.4161 C   0  0  0  0  0  0  0  0  0  0  0  0
    9.8499   -4.0863   25.6373 C   0  0  0  0  0  0  0  0  0  0  0  0
    8.5831   -4.2431   24.8496 C   0  0  0  0  0  0  0  0  0  0  0  0
    7.7056   -5.4394   25.0708 F   0  0  0  0  0  0  0  0  0  0  0  0
    8.1937   -3.2037   23.8407 C   0  0  0  0  0  0  0  0  0  0  0  0
    9.0711   -2.0074   23.6195 C   0  0  0  0  0  0  0  0  0  0  0  0
    6.0138    0.0681   19.9887 C   0  0  0  0  0  0  0  0  0  0  0  0
    6.4018   -0.0361   18.5435 C   0  0  0  0  0  0  0  0  0  0  0  0
    5.5426    0.5958   17.4888 N   0  0  0  0  0  0  0  0  0  0  0  0
    4.2953    1.3318   17.8794 C   0  0  0  0  0  0  0  0  0  0  0  0
    3.9073    1.4360   19.3246 C   0  0  0  0  0  0  0  0  0  0  0  0
    2.6599    2.1721   19.7151 C   0  0  0  0  0  0  0  0  0  0  0  0
    2.2720    2.2762   21.1603 C   0  0  0  0  0  0  0  0  0  0  0  0
    3.1313    1.6443   22.2149 C   0  0  0  0  0  0  0  0  0  0  0  0
    4.3786    0.9083   21.8244 C   0  0  0  0  0  0  0  0  0  0  0  0
    4.7665    0.8041   20.3793 C   0  0  0  0  0  0  0  0  0  0  0  0
   11.7036    1.5815   22.9558 C   0  0  0  0  0  0  0  0  0  0  0  0
   11.1151    2.9607   22.9947 C   0  0  0  0  0  0  0  0  0  0  0  0
    9.6606    3.2947   23.1458 C   0  0  0  0  0  0  0  0  0  0  0  0
    9.5244    4.7885   23.1337 O   0  0  0  0  0  0  0  0  0  0  0  0
   10.8948    5.3777   22.9751 C   0  0  0  0  0  0  0  0  0  0  0  0
   11.8779    4.2480   22.8892 N   0  0  0  0  0  0  0  0  0  0  0  0
  2  1  1  0  0  0
  2  3  1  0  0  0
  3  4  1  0  0  0
  4 19  1  0  0  0
 19 20  2  0  0  0
 20 21  1  0  0  0
 21 22  2  0  0  0
 22 23  1  0  0  0
 23 24  2  0  0  0
 24 25  1  0  0  0
 25 26  2  0  0  0
 26 27  1  0  0  0
 27 28  2  0  0  0
  4  5  1  0  0  0
  5  6  2  0  0  0
  5  7  1  0  0  0
  7  8  1  0  0  0
  8  9  1  0  0  0
  9 29  1  0  0  0
 29 30  1  0  0  0
 30 31  2  0  0  0
 31 32  1  0  0  0
 32 33  1  0  0  0
 33 34  2  0  0  0
  9 10  1  0  0  0
 10 11  2  0  0  0
 10 12  1  0  0  0
 12 13  2  0  0  0
 13 14  1  0  0  0
 14 15  2  0  0  0
 15 16  1  0  0  0
 15 17  1  0  0  0
 17 18  2  0  0  0
  7  2  1  0  0  0
 34 30  1  0  0  0
 18 12  1  0  0  0
 28 19  1  0  0  0
 18  7  1  0  0  0
 28 23  1  0  0  0
M  END
> <minimizedAffinity>
-9.57069

> <CNNscore>
0.5868489742

> <CNNaffinity>
6.7080879211

> <CNN_VS>
3.9366345406

> <CNNaffinity_variance>
0.0751558989

$$$$



 34 39  0  0  0  0  0  0  0  0999 V2000
    9.2016   -0.9136   23.6741 C   0  0  0  0  0  0  0  0  0  0  0  0
    8.0317   -1.3167   22.8262 C   0  0  0  0  0  0  0  0  0  0  0  0
    7.6221   -0.2275   21.8796 C   0  0  0  0  0  0  0  0  0  0  0  0
    6.4529   -0.7228   21.0810 N   0  0  0  0  0  0  0  0  0  0  0  0
    6.1399   -2.1181   21.5341 C   0  0  0  0  0  0  0  0  0  0  0  0
    5.0437   -2.9928   21.0020 O   0  0  0  0  0  0  0  0  0  0  0  0
    7.1157   -2.4851   22.6126 C   0  0  0  0  0  0  0  0  0  0  0  0
    6.1286   -3.5672   22.2890 C   0  0  0  0  0  0  0  0  0  0  0  0
    6.1794   -4.8733   23.0248 N   0  0  0  0  0  0  0  0  0  0  0  0
    7.2172   -5.0974   24.0843 C   0  0  0  0  0  0  0  0  0  0  0  0
    7.2680   -6.4035   24.8201 O   0  0  0  0  0  0  0  0  0  0  0  0
    8.2044   -4.0153   24.4080 C   0  0  0  0  0  0  0  0  0  0  0  0
    9.2423   -4.2394   25.4674 C   0  0  0  0  0  0  0  0  0  0  0  0
   10.2294   -3.1574   25.7911 C   0  0  0  0  0  0  0  0  0  0  0  0
   10.1786   -1.8513   25.0553 C   0  0  0  0  0  0  0  0  0  0  0  0
   11.1658   -0.7692   25.3790 F   0  0  0  0  0  0  0  0  0  0  0  0
    9.1407   -1.6272   23.9958 C   0  0  0  0  0  0  0  0  0  0  0  0
    8.1536   -2.7092   23.6722 C   0  0  0  0  0  0  0  0  0  0  0  0
    5.7246    0.0427   20.0164 C   0  0  0  0  0  0  0  0  0  0  0  0
    6.1954   -0.0187   18.5936 C   0  0  0  0  0  0  0  0  0  0  0  0
    5.4670    0.7468   17.5289 N   0  0  0  0  0  0  0  0  0  0  0  0
    4.2679    1.5737   17.8871 C   0  0  0  0  0  0  0  0  0  0  0  0
    3.7971    1.6350   19.3100 C   0  0  0  0  0  0  0  0  0  0  0  0
    2.5979    2.4620   19.6682 C   0  0  0  0  0  0  0  0  0  0  0  0
    2.1272    2.5233   21.0911 C   0  0  0  0  0  0  0  0  0  0  0  0
    2.8555    1.7578   22.1557 C   0  0  0  0  0  0  0  0  0  0  0  0
    4.0547    0.9309   21.7975 C   0  0  0  0  0  0  0  0  0  0  0  0
    4.5254    0.8695   20.3747 C   0  0  0  0  0  0  0  0  0  0  0  0
    5.1922   -5.9554   22.7011 C   0  0  0  0  0  0  0  0  0  0  0  0
    3.9175   -6.0663   23.4839 C   0  0  0  0  0  0  0  0  0  0  0  0
    3.7212   -5.6527   24.9123 C   0  0  0  0  0  0  0  0  0  0  0  0
    2.2976   -5.9411   25.2869 O   0  0  0  0  0  0  0  0  0  0  0  0
    1.6141   -6.5330   24.0900 C   0  0  0  0  0  0  0  0  0  0  0  0
    2.6152   -6.6103   22.9757 N   0  0  0  0  0  0  0  0  0  0  0  0
  2  1  1  0  0  0
  2  3  1  0  0  0
  3  4  1  0  0  0
  4 19  1  0  0  0
 19 20  2  0  0  0
 20 21  1  0  0  0
 21 22  2  0  0  0
 22 23  1  0  0  0
 23 24  2  0  0  0
 24 25  1  0  0  0
 25 26  2  0  0  0
 26 27  1  0  0  0
 27 28  2  0  0  0
  4  5  1  0  0  0
  5  6  2  0  0  0
  5  7  1  0  0  0
  7  8  1  0  0  0
  8  9  1  0  0  0
  9 29  1  0  0  0
 29 30  1  0  0  0
 30 31  2  0  0  0
 31 32  1  0  0  0
 32 33  1  0  0  0
 33 34  2  0  0  0
  9 10  1  0  0  0
 10 11  2  0  0  0
 10 12  1  0  0  0
 12 13  2  0  0  0
 13 14  1  0  0  0
 14 15  2  0  0  0
 15 16  1  0  0  0
 15 17  1  0  0  0
 17 18  2  0  0  0
  7  2  1  0  0  0
 34 30  1  0  0  0
 18 12  1  0  0  0
 28 19  1  0  0  0
 18  7  1  0  0  0
 28 23  1  0  0  0
M  END
> <minimizedAffinity>
-8.22951

> <CNNscore>
0.5192021132

> <CNNaffinity>
6.4791312218

> <CNN_VS>
3.3639786243

> <CNNaffinity_variance>
0.0403958112

$$$$



 34 39  0  0  0  0  0  0  0  0999 V2000
   11.2367   -1.4916   25.0496 C   0  0  0  0  0  0  0  0  0  0  0  0
   10.5109   -0.4825   24.2099 C   0  0  0  0  0  0  0  0  0  0  0  0
   11.2768    0.8013   24.0869 C   0  0  0  0  0  0  0  0  0  0  0  0
   10.4748    1.7398   23.2349 N   0  0  0  0  0  0  0  0  0  0  0  0
    9.2131    1.0359   22.8313 C   0  0  0  0  0  0  0  0  0  0  0  0
    8.1209    1.6056   21.9753 O   0  0  0  0  0  0  0  0  0  0  0  0
    9.2355   -0.3375   23.4338 C   0  0  0  0  0  0  0  0  0  0  0  0
    8.0079   -0.0473   22.6222 C   0  0  0  0  0  0  0  0  0  0  0  0
    6.9420   -1.0923   22.4746 N   0  0  0  0  0  0  0  0  0  0  0  0
    7.1036   -2.4275   23.1387 C   0  0  0  0  0  0  0  0  0  0  0  0
    6.0376   -3.4725   22.9912 O   0  0  0  0  0  0  0  0  0  0  0  0
    8.3312   -2.7178   23.9504 C   0  0  0  0  0  0  0  0  0  0  0  0
    8.4928   -4.0530   24.6145 C   0  0  0  0  0  0  0  0  0  0  0  0
    9.7204   -4.3432   25.4262 C   0  0  0  0  0  0  0  0  0  0  0  0
   10.7863   -3.2982   25.5737 C   0  0  0  0  0  0  0  0  0  0  0  0
   12.0140   -3.5885   26.3854 F   0  0  0  0  0  0  0  0  0  0  0  0
   10.6247   -1.9630   24.9096 C   0  0  0  0  0  0  0  0  0  0  0  0
    9.3971   -1.6728   24.0980 C   0  0  0  0  0  0  0  0  0  0  0  0
   10.8657    3.1368   22.8534 C   0  0  0  0  0  0  0  0  0  0  0  0
   12.2163    3.4014   22.2572 C   0  0  0  0  0  0  0  0  0  0  0  0
   12.6072    4.7984   21.8758 N   0  0  0  0  0  0  0  0  0  0  0  0
   11.6473    5.9308   22.0905 C   0  0  0  0  0  0  0  0  0  0  0  0
   10.2966    5.6662   22.6867 C   0  0  0  0  0  0  0  0  0  0  0  0
    9.3366    6.7988   22.9015 C   0  0  0  0  0  0  0  0  0  0  0  0
    7.9859    6.5341   23.4977 C   0  0  0  0  0  0  0  0  0  0  0  0
    7.5951    5.1371   23.8791 C   0  0  0  0  0  0  0  0  0  0  0  0
    8.5550    4.0047   23.6644 C   0  0  0  0  0  0  0  0  0  0  0  0
    9.9057    4.2692   23.0682 C   0  0  0  0  0  0  0  0  0  0  0  0
    5.7143   -0.8020   21.6629 C   0  0  0  0  0  0  0  0  0  0  0  0
    5.8468   -0.3285   20.2459 C   0  0  0  0  0  0  0  0  0  0  0  0
    7.0663   -0.4607   19.3825 C   0  0  0  0  0  0  0  0  0  0  0  0
    6.7563    0.1465   18.0464 O   0  0  0  0  0  0  0  0  0  0  0  0
    5.3452    0.6540   18.0840 C   0  0  0  0  0  0  0  0  0  0  0  0
    4.7832    0.3604   19.4433 N   0  0  0  0  0  0  0  0  0  0  0  0
  2  1  1  0  0  0
  2  3  1  0  0  0
  3  4  1  0  0  0
  4 19  1  0  0  0
 19 20  2  0  0  0
 20 21  1  0  0  0
 21 22  2  0  0  0
 22 23  1  0  0  0
 23 24  2  0  0  0
 24 25  1  0  0  0
 25 26  2  0  0  0
 26 27  1  0  0  0
 27 28  2  0  0  0
  4  5  1  0  0  0
  5  6  2  0  0  0
  5  7  1  0  0  0
  7  8  1  0  0  0
  8  9  1  0  0  0
  9 29  1  0  0  0
 29 30  1  0  0  0
 30 31  2  0  0  0
 31 32  1  0  0  0
 32 33  1  0  0  0
 33 34  2  0  0  0
  9 10  1  0  0  0
 10 11  2  0  0  0
 10 12  1  0  0  0
 12 13  2  0  0  0
 13 14  1  0  0  0
 14 15  2  0  0  0
 15 16  1  0  0  0
 15 17  1  0  0  0
 17 18  2  0  0  0
  7  2  1  0  0  0
 34 30  1  0  0  0
 18 12  1  0  0  0
 28 19  1  0  0  0
 18  7  1  0  0  0
 28 23  1  0  0  0
M  END
> <minimizedAffinity>
-9.05341

> <CNNscore>
0.4956508279

> <CNNaffinity>
6.7911157608

> <CNN_VS>
3.3660221100

> <CNNaffinity_variance>
0.2059167922

$$$$



 34 39  0  0  0  0  0  0  0  0999 V2000
   11.0252    0.1073   22.5340 C   0  0  0  0  0  0  0  0  0  0  0  0
    9.6496   -0.4347   22.2806 C   0  0  0  0  0  0  0  0  0  0  0  0
    8.9222    0.3484   21.2281 C   0  0  0  0  0  0  0  0  0  0  0  0
    7.5660   -0.2665   21.0474 N   0  0  0  0  0  0  0  0  0  0  0  0
    7.4553   -1.4295   21.9882 C   0  0  0  0  0  0  0  0  0  0  0  0
    6.2656   -2.3304   22.1401 O   0  0  0  0  0  0  0  0  0  0  0  0
    8.7430   -1.5334   22.7504 C   0  0  0  0  0  0  0  0  0  0  0  0
    7.7306   -2.5774   23.1179 C   0  0  0  0  0  0  0  0  0  0  0  0
    8.0547   -3.6005   24.1658 N   0  0  0  0  0  0  0  0  0  0  0  0
    9.3913   -3.5796   24.8463 C   0  0  0  0  0  0  0  0  0  0  0  0
    9.7155   -4.6027   25.8942 O   0  0  0  0  0  0  0  0  0  0  0  0
   10.4038   -2.5356   24.4788 C   0  0  0  0  0  0  0  0  0  0  0  0
   11.7404   -2.5147   25.1593 C   0  0  0  0  0  0  0  0  0  0  0  0
   12.7528   -1.4707   24.7919 C   0  0  0  0  0  0  0  0  0  0  0  0
   12.4286   -0.4476   23.7439 C   0  0  0  0  0  0  0  0  0  0  0  0
   13.4411    0.5964   23.3765 F   0  0  0  0  0  0  0  0  0  0  0  0
   11.0920   -0.4685   23.0634 C   0  0  0  0  0  0  0  0  0  0  0  0
   10.0796   -1.5125   23.4309 C   0  0  0  0  0  0  0  0  0  0  0  0
    6.5066    0.1998   20.0934 C   0  0  0  0  0  0  0  0  0  0  0  0
    6.3958   -0.4224   18.7331 C   0  0  0  0  0  0  0  0  0  0  0  0
    5.3363    0.0438   17.7791 N   0  0  0  0  0  0  0  0  0  0  0  0
    4.3877    1.1324   18.1854 C   0  0  0  0  0  0  0  0  0  0  0  0
    4.4986    1.7547   19.5457 C   0  0  0  0  0  0  0  0  0  0  0  0
    3.5499    2.8434   19.9520 C   0  0  0  0  0  0  0  0  0  0  0  0
    3.6608    3.4656   21.3124 C   0  0  0  0  0  0  0  0  0  0  0  0
    4.7202    2.9993   22.2663 C   0  0  0  0  0  0  0  0  0  0  0  0
    5.6688    1.9107   21.8600 C   0  0  0  0  0  0  0  0  0  0  0  0
    5.5580    1.2884   20.4998 C   0  0  0  0  0  0  0  0  0  0  0  0
    7.0423   -4.6446   24.5333 C   0  0  0  0  0  0  0  0  0  0  0  0
    6.2157   -5.2966   23.4648 C   0  0  0  0  0  0  0  0  0  0  0  0
    4.7292   -5.4949   23.4981 C   0  0  0  0  0  0  0  0  0  0  0  0
    4.3252   -6.1856   22.2294 O   0  0  0  0  0  0  0  0  0  0  0  0
    5.5620   -6.4142   21.4119 C   0  0  0  0  0  0  0  0  0  0  0  0
    6.7303   -5.8647   22.1755 N   0  0  0  0  0  0  0  0  0  0  0  0
  2  1  1  0  0  0
  2  3  1  0  0  0
  3  4  1  0  0  0
  4 19  1  0  0  0
 19 20  2  0  0  0
 20 21  1  0  0  0
 21 22  2  0  0  0
 22 23  1  0  0  0
 23 24  2  0  0  0
 24 25  1  0  0  0
 25 26  2  0  0  0
 26 27  1  0  0  0
 27 28  2  0  0  0
  4  5  1  0  0  0
  5  6  2  0  0  0
  5  7  1  0  0  0
  7  8  1  0  0  0
  8  9  1  0  0  0
  9 29  1  0  0  0
 29 30  1  0  0  0
 30 31  2  0  0  0
 31 32  1  0  0  0
 32 33  1  0  0  0
 33 34  2  0  0  0
  9 10  1  0  0  0
 10 11  2  0  0  0
 10 12  1  0  0  0
 12 13  2  0  0  0
 13 14  1  0  0  0
 14 15  2  0  0  0
 15 16  1  0  0  0
 15 17  1  0  0  0
 17 18  2  0  0  0
  7  2  1  0  0  0
 34 30  1  0  0  0
 18 12  1  0  0  0
 28 19  1  0  0  0
 18  7  1  0  0  0
 28 23  1  0  0  0
M  END
> <minimizedAffinity>
-9.33287

> <CNNscore>
0.3884057999

> <CNNaffinity>
6.6176199913

> <CNN_VS>
2.5703220367

> <CNNaffinity_variance>
0.1299024224

$$$$



 34 39  0  0  0  0  0  0  0  0999 V2000
    7.2730    0.1890   20.1699 C   0  0  0  0  0  0  0  0  0  0  0  0
    7.5926    0.0542   21.6293 C   0  0  0  0  0  0  0  0  0  0  0  0
    9.0183   -0.3526   21.8570 C   0  0  0  0  0  0  0  0  0  0  0  0
    9.2389   -0.4603   23.3368 N   0  0  0  0  0  0  0  0  0  0  0  0
    7.9495   -0.1202   24.0236 C   0  0  0  0  0  0  0  0  0  0  0  0
    7.7182   -0.1013   25.5055 O   0  0  0  0  0  0  0  0  0  0  0  0
    6.9320    0.1978   22.9683 C   0  0  0  0  0  0  0  0  0  0  0  0
    6.4093    0.3008   24.3705 C   0  0  0  0  0  0  0  0  0  0  0  0
    4.9818    0.6934   24.6118 N   0  0  0  0  0  0  0  0  0  0  0  0
    4.0771    0.9830   23.4510 C   0  0  0  0  0  0  0  0  0  0  0  0
    2.6497    1.3756   23.6924 O   0  0  0  0  0  0  0  0  0  0  0  0
    4.5998    0.8800   22.0488 C   0  0  0  0  0  0  0  0  0  0  0  0
    3.6951    1.1696   20.8880 C   0  0  0  0  0  0  0  0  0  0  0  0
    4.2178    1.0666   19.4858 C   0  0  0  0  0  0  0  0  0  0  0  0
    5.6452    0.6740   19.2444 C   0  0  0  0  0  0  0  0  0  0  0  0
    6.1679    0.5710   17.8422 F   0  0  0  0  0  0  0  0  0  0  0  0
    6.5499    0.3844   20.4052 C   0  0  0  0  0  0  0  0  0  0  0  0
    6.0272    0.4874   21.8074 C   0  0  0  0  0  0  0  0  0  0  0  0
   10.5234   -0.8413   24.0113 C   0  0  0  0  0  0  0  0  0  0  0  0
   11.7314    0.0372   23.8749 C   0  0  0  0  0  0  0  0  0  0  0  0
   13.0159   -0.3437   24.5494 N   0  0  0  0  0  0  0  0  0  0  0  0
   13.0922   -1.6033   25.3604 C   0  0  0  0  0  0  0  0  0  0  0  0
   11.8841   -2.4818   25.4969 C   0  0  0  0  0  0  0  0  0  0  0  0
   11.9604   -3.7414   26.3079 C   0  0  0  0  0  0  0  0  0  0  0  0
   10.7523   -4.6199   26.4443 C   0  0  0  0  0  0  0  0  0  0  0  0
    9.4679   -4.2389   25.7697 C   0  0  0  0  0  0  0  0  0  0  0  0
    9.3916   -2.9794   24.9588 C   0  0  0  0  0  0  0  0  0  0  0  0
   10.5996   -2.1009   24.8223 C   0  0  0  0  0  0  0  0  0  0  0  0
    4.4592    0.7964   26.0141 C   0  0  0  0  0  0  0  0  0  0  0  0
    5.2653    1.5001   27.0652 C   0  0  0  0  0  0  0  0  0  0  0  0
    5.7212    2.9284   27.0175 C   0  0  0  0  0  0  0  0  0  0  0  0
    6.4947    3.2102   28.2713 O   0  0  0  0  0  0  0  0  0  0  0  0
    6.5169    1.9560   29.0940 C   0  0  0  0  0  0  0  0  0  0  0  0
    5.7571    0.8992   28.3486 N   0  0  0  0  0  0  0  0  0  0  0  0
  2  1  1  0  0  0
  2  3  1  0  0  0
  3  4  1  0  0  0
  4 19  1  0  0  0
 19 20  2  0  0  0
 20 21  1  0  0  0
 21 22  2  0  0  0
 22 23  1  0  0  0
 23 24  2  0  0  0
 24 25  1  0  0  0
 25 26  2  0  0  0
 26 27  1  0  0  0
 27 28  2  0  0  0
  4  5  1  0  0  0
  5  6  2  0  0  0
  5  7  1  0  0  0
  7  8  1  0  0  0
  8  9  1  0  0  0
  9 29  1  0  0  0
 29 30  1  0  0  0
 30 31  2  0  0  0
 31 32  1  0  0  0
 32 33  1  0  0  0
 33 34  2  0  0  0
  9 10  1  0  0  0
 10 11  2  0  0  0
 10 12  1  0  0  0
 12 13  2  0  0  0
 13 14  1  0  0  0
 14 15  2  0  0  0
 15 16  1  0  0  0
 15 17  1  0  0  0
 17 18  2  0  0  0
  7  2  1  0  0  0
 34 30  1  0  0  0
 18 12  1  0  0  0
 28 19  1  0  0  0
 18  7  1  0  0  0
 28 23  1  0  0  0
M  END
> <minimizedAffinity>
-8.46707

> <CNNscore>
0.3582472801

> <CNNaffinity>
6.4307355881

> <CNN_VS>
2.3037934303

> <CNNaffinity_variance>
0.0528696962

$$$$



 34 39  0  0  0  0  0  0  0  0999 V2000
   10.6528   -1.8675   25.4845 C   0  0  0  0  0  0  0  0  0  0  0  0
    9.1827   -1.9437   25.1962 C   0  0  0  0  0  0  0  0  0  0  0  0
    8.5039   -3.0021   26.0142 C   0  0  0  0  0  0  0  0  0  0  0  0
    7.0471   -3.0007   25.6570 N   0  0  0  0  0  0  0  0  0  0  0  0
    6.8255   -1.9415   24.6182 C   0  0  0  0  0  0  0  0  0  0  0  0
    5.5143   -1.5962   23.9769 O   0  0  0  0  0  0  0  0  0  0  0  0
    8.1454   -1.2882   24.3334 C   0  0  0  0  0  0  0  0  0  0  0  0
    7.0040   -0.7304   23.5360 C   0  0  0  0  0  0  0  0  0  0  0  0
    7.2444    0.3828   22.5599 N   0  0  0  0  0  0  0  0  0  0  0  0
    8.6262    0.9383   22.3811 C   0  0  0  0  0  0  0  0  0  0  0  0
    8.8666    2.0515   21.4049 O   0  0  0  0  0  0  0  0  0  0  0  0
    9.7677    0.3804   23.1785 C   0  0  0  0  0  0  0  0  0  0  0  0
   11.1496    0.9359   22.9998 C   0  0  0  0  0  0  0  0  0  0  0  0
   12.2910    0.3781   23.7972 C   0  0  0  0  0  0  0  0  0  0  0  0
   12.0506   -0.7352   24.7734 C   0  0  0  0  0  0  0  0  0  0  0  0
   13.1921   -1.2930   25.5708 F   0  0  0  0  0  0  0  0  0  0  0  0
   10.6688   -1.2906   24.9521 C   0  0  0  0  0  0  0  0  0  0  0  0
    9.5274   -0.7328   24.1547 C   0  0  0  0  0  0  0  0  0  0  0  0
    5.9963   -3.9005   26.2368 C   0  0  0  0  0  0  0  0  0  0  0  0
    5.4491   -5.0358   25.4234 C   0  0  0  0  0  0  0  0  0  0  0  0
    4.3983   -5.9356   26.0032 N   0  0  0  0  0  0  0  0  0  0  0  0
    3.8947   -5.7000   27.3963 C   0  0  0  0  0  0  0  0  0  0  0  0
    4.4419   -4.5647   28.2097 C   0  0  0  0  0  0  0  0  0  0  0  0
    3.9383   -4.3292   29.6030 C   0  0  0  0  0  0  0  0  0  0  0  0
    4.4856   -3.1939   30.4163 C   0  0  0  0  0  0  0  0  0  0  0  0
    5.5363   -2.2941   29.8365 C   0  0  0  0  0  0  0  0  0  0  0  0
    6.0399   -2.5297   28.4433 C   0  0  0  0  0  0  0  0  0  0  0  0
    5.4927   -3.6649   27.6300 C   0  0  0  0  0  0  0  0  0  0  0  0
    6.1029    0.9406   21.7624 C   0  0  0  0  0  0  0  0  0  0  0  0
    5.9808    0.6202   20.3022 C   0  0  0  0  0  0  0  0  0  0  0  0
    6.9337   -0.2158   19.5004 C   0  0  0  0  0  0  0  0  0  0  0  0
    6.4263   -0.2732   18.0900 O   0  0  0  0  0  0  0  0  0  0  0  0
    5.1597    0.5274   18.0201 C   0  0  0  0  0  0  0  0  0  0  0  0
    4.8844    1.0796   19.3873 N   0  0  0  0  0  0  0  0  0  0  0  0
  2  1  1  0  0  0
  2  3  1  0  0  0
  3  4  1  0  0  0
  4 19  1  0  0  0
 19 20  2  0  0  0
 20 21  1  0  0  0
 21 22  2  0  0  0
 22 23  1  0  0  0
 23 24  2  0  0  0
 24 25  1  0  0  0
 25 26  2  0  0  0
 26 27  1  0  0  0
 27 28  2  0  0  0
  4  5  1  0  0  0
  5  6  2  0  0  0
  5  7  1  0  0  0
  7  8  1  0  0  0
  8  9  1  0  0  0
  9 29  1  0  0  0
 29 30  1  0  0  0
 30 31  2  0  0  0
 31 32  1  0  0  0
 32 33  1  0  0  0
 33 34  2  0  0  0
  9 10  1  0  0  0
 10 11  2  0  0  0
 10 12  1  0  0  0
 12 13  2  0  0  0
 13 14  1  0  0  0
 14 15  2  0  0  0
 15 16  1  0  0  0
 15 17  1  0  0  0
 17 18  2  0  0  0
  7  2  1  0  0  0
 34 30  1  0  0  0
 18 12  1  0  0  0
 28 19  1  0  0  0
 18  7  1  0  0  0
 28 23  1  0  0  0
M  END
> <minimizedAffinity>
-8.96828

> <CNNscore>
0.3184408247

> <CNNaffinity>
6.2684583664

> <CNN_VS>
1.9961330891

> <CNNaffinity_variance>
0.1466534585

$$$$



 34 39  0  0  0  0  0  0  0  0999 V2000
   10.3907   -2.8762   24.4524 C   0  0  0  0  0  0  0  0  0  0  0  0
    8.9812   -2.7476   23.9554 C   0  0  0  0  0  0  0  0  0  0  0  0
    8.1471   -3.9409   24.3164 C   0  0  0  0  0  0  0  0  0  0  0  0
    6.7642   -3.7193   23.7795 N   0  0  0  0  0  0  0  0  0  0  0  0
    6.7436   -2.3890   23.0866 C   0  0  0  0  0  0  0  0  0  0  0  0
    5.5605   -1.7683   22.4047 O   0  0  0  0  0  0  0  0  0  0  0  0
    8.1138   -1.7885   23.1953 C   0  0  0  0  0  0  0  0  0  0  0  0
    7.1300   -0.9332   22.4533 C   0  0  0  0  0  0  0  0  0  0  0  0
    7.5578    0.3935   21.8993 N   0  0  0  0  0  0  0  0  0  0  0  0
    8.9693    0.8649   22.0872 C   0  0  0  0  0  0  0  0  0  0  0  0
    9.3970    2.1916   21.5332 O   0  0  0  0  0  0  0  0  0  0  0  0
    9.9531    0.0096   22.8293 C   0  0  0  0  0  0  0  0  0  0  0  0
   11.3646    0.4810   23.0173 C   0  0  0  0  0  0  0  0  0  0  0  0
   12.3484   -0.3742   23.7593 C   0  0  0  0  0  0  0  0  0  0  0  0
   11.9207   -1.7009   24.3133 C   0  0  0  0  0  0  0  0  0  0  0  0
   12.9046   -2.5562   25.0554 F   0  0  0  0  0  0  0  0  0  0  0  0
   10.5092   -2.1723   24.1254 C   0  0  0  0  0  0  0  0  0  0  0  0
    9.5254   -1.3171   23.3833 C   0  0  0  0  0  0  0  0  0  0  0  0
    5.6052   -4.6623   23.9121 C   0  0  0  0  0  0  0  0  0  0  0  0
    5.1115   -5.4170   22.7136 C   0  0  0  0  0  0  0  0  0  0  0  0
    3.9526   -6.3600   22.8462 N   0  0  0  0  0  0  0  0  0  0  0  0
    3.2874   -6.5483   24.1773 C   0  0  0  0  0  0  0  0  0  0  0  0
    3.7812   -5.7935   25.3759 C   0  0  0  0  0  0  0  0  0  0  0  0
    3.1159   -5.9818   26.7072 C   0  0  0  0  0  0  0  0  0  0  0  0
    3.6098   -5.2270   27.9057 C   0  0  0  0  0  0  0  0  0  0  0  0
    4.7687   -4.2841   27.7730 C   0  0  0  0  0  0  0  0  0  0  0  0
    5.4338   -4.0958   26.4418 C   0  0  0  0  0  0  0  0  0  0  0  0
    4.9401   -4.8505   25.2433 C   0  0  0  0  0  0  0  0  0  0  0  0
    6.5739    1.2487   21.1572 C   0  0  0  0  0  0  0  0  0  0  0  0
    6.0685    0.8163   19.8128 C   0  0  0  0  0  0  0  0  0  0  0  0
    6.6574   -0.2644   18.9553 C   0  0  0  0  0  0  0  0  0  0  0  0
    5.8384   -0.3600   17.7024 O   0  0  0  0  0  0  0  0  0  0  0  0
    4.7431    0.6616   17.7854 C   0  0  0  0  0  0  0  0  0  0  0  0
    4.8854    1.3886   19.0897 N   0  0  0  0  0  0  0  0  0  0  0  0
  2  1  1  0  0  0
  2  3  1  0  0  0
  3  4  1  0  0  0
  4 19  1  0  0  0
 19 20  2  0  0  0
 20 21  1  0  0  0
 21 22  2  0  0  0
 22 23  1  0  0  0
 23 24  2  0  0  0
 24 25  1  0  0  0
 25 26  2  0  0  0
 26 27  1  0  0  0
 27 28  2  0  0  0
  4  5  1  0  0  0
  5  6  2  0  0  0
  5  7  1  0  0  0
  7  8  1  0  0  0
  8  9  1  0  0  0
  9 29  1  0  0  0
 29 30  1  0  0  0
 30 31  2  0  0  0
 31 32  1  0  0  0
 32 33  1  0  0  0
 33 34  2  0  0  0
  9 10  1  0  0  0
 10 11  2  0  0  0
 10 12  1  0  0  0
 12 13  2  0  0  0
 13 14  1  0  0  0
 14 15  2  0  0  0
 15 16  1  0  0  0
 15 17  1  0  0  0
 17 18  2  0  0  0
  7  2  1  0  0  0
 34 30  1  0  0  0
 18 12  1  0  0  0
 28 19  1  0  0  0
 18  7  1  0  0  0
 28 23  1  0  0  0
M  END
> <minimizedAffinity>
-9.01349

> <CNNscore>
0.3052620292

> <CNNaffinity>
6.4345941544

> <CNN_VS>
1.9642372131

> <CNNaffinity_variance>
0.1829669625

$$$$



 34 39  0  0  0  0  0  0  0  0999 V2000
   10.8344   -3.2492   26.1236 C   0  0  0  0  0  0  0  0  0  0  0  0
    9.4427   -2.7830   25.8137 C   0  0  0  0  0  0  0  0  0  0  0  0
    8.4024   -3.6761   26.4221 C   0  0  0  0  0  0  0  0  0  0  0  0
    7.0532   -3.1307   26.0584 N   0  0  0  0  0  0  0  0  0  0  0  0
    7.2597   -1.9005   25.2253 C   0  0  0  0  0  0  0  0  0  0  0  0
    6.1791   -1.0369   24.6453 O   0  0  0  0  0  0  0  0  0  0  0  0
    8.7365   -1.6856   25.0741 C   0  0  0  0  0  0  0  0  0  0  0  0
    7.8959   -0.6551   24.3803 C   0  0  0  0  0  0  0  0  0  0  0  0
    8.5514    0.4611   23.6225 N   0  0  0  0  0  0  0  0  0  0  0  0
   10.0475    0.5470   23.5585 C   0  0  0  0  0  0  0  0  0  0  0  0
   10.7030    1.6632   22.8007 O   0  0  0  0  0  0  0  0  0  0  0  0
   10.8882   -0.4835   24.2523 C   0  0  0  0  0  0  0  0  0  0  0  0
   12.3844   -0.3977   24.1883 C   0  0  0  0  0  0  0  0  0  0  0  0
   13.2250   -1.4282   24.8821 C   0  0  0  0  0  0  0  0  0  0  0  0
   12.5695   -2.5444   25.6399 C   0  0  0  0  0  0  0  0  0  0  0  0
   13.4103   -3.5749   26.3337 F   0  0  0  0  0  0  0  0  0  0  0  0
   11.0734   -2.6303   25.7039 C   0  0  0  0  0  0  0  0  0  0  0  0
   10.2328   -1.5998   25.0101 C   0  0  0  0  0  0  0  0  0  0  0  0
    5.7299   -3.7132   26.4577 C   0  0  0  0  0  0  0  0  0  0  0  0
    4.9385   -4.5217   25.4730 C   0  0  0  0  0  0  0  0  0  0  0  0
    3.6152   -5.1042   25.8723 N   0  0  0  0  0  0  0  0  0  0  0  0
    3.0833   -4.8781   27.2565 C   0  0  0  0  0  0  0  0  0  0  0  0
    3.8747   -4.0695   28.2413 C   0  0  0  0  0  0  0  0  0  0  0  0
    3.3427   -3.8434   29.6255 C   0  0  0  0  0  0  0  0  0  0  0  0
    4.1342   -3.0348   30.6103 C   0  0  0  0  0  0  0  0  0  0  0  0
    5.4575   -2.4524   30.2109 C   0  0  0  0  0  0  0  0  0  0  0  0
    5.9894   -2.6785   28.8267 C   0  0  0  0  0  0  0  0  0  0  0  0
    5.1980   -3.4870   27.8420 C   0  0  0  0  0  0  0  0  0  0  0  0
    7.7106    1.4916   22.9286 C   0  0  0  0  0  0  0  0  0  0  0  0
    7.0505    1.1650   21.6219 C   0  0  0  0  0  0  0  0  0  0  0  0
    5.6974    1.6344   21.1761 C   0  0  0  0  0  0  0  0  0  0  0  0
    5.4382    1.0711   19.8102 O   0  0  0  0  0  0  0  0  0  0  0  0
    6.6312    0.2536   19.4119 C   0  0  0  0  0  0  0  0  0  0  0  0
    7.6276    0.3117   20.5316 N   0  0  0  0  0  0  0  0  0  0  0  0
  2  1  1  0  0  0
  2  3  1  0  0  0
  3  4  1  0  0  0
  4 19  1  0  0  0
 19 20  2  0  0  0
 20 21  1  0  0  0
 21 22  2  0  0  0
 22 23  1  0  0  0
 23 24  2  0  0  0
 24 25  1  0  0  0
 25 26  2  0  0  0
 26 27  1  0  0  0
 27 28  2  0  0  0
  4  5  1  0  0  0
  5  6  2  0  0  0
  5  7  1  0  0  0
  7  8  1  0  0  0
  8  9  1  0  0  0
  9 29  1  0  0  0
 29 30  1  0  0  0
 30 31  2  0  0  0
 31 32  1  0  0  0
 32 33  1  0  0  0
 33 34  2  0  0  0
  9 10  1  0  0  0
 10 11  2  0  0  0
 10 12  1  0  0  0
 12 13  2  0  0  0
 13 14  1  0  0  0
 14 15  2  0  0  0
 15 16  1  0  0  0
 15 17  1  0  0  0
 17 18  2  0  0  0
  7  2  1  0  0  0
 34 30  1  0  0  0
 18 12  1  0  0  0
 28 19  1  0  0  0
 18  7  1  0  0  0
 28 23  1  0  0  0
M  END
> <minimizedAffinity>
-8.44935

> <CNNscore>
0.2868631184

> <CNNaffinity>
6.3685560226

> <CNN_VS>
1.8269038200

> <CNNaffinity_variance>
0.1617650688

$$$$



 34 39  0  0  0  0  0  0  0  0999 V2000
   10.9658   -3.3870   26.2060 C   0  0  0  0  0  0  0  0  0  0  0  0
    9.6009   -2.9125   25.8035 C   0  0  0  0  0  0  0  0  0  0  0  0
    8.5179   -3.8112   26.3224 C   0  0  0  0  0  0  0  0  0  0  0  0
    7.1994   -3.2569   25.8705 N   0  0  0  0  0  0  0  0  0  0  0  0
    7.4676   -2.0156   25.0723 C   0  0  0  0  0  0  0  0  0  0  0  0
    6.4331   -1.1407   24.4285 O   0  0  0  0  0  0  0  0  0  0  0  0
    8.9518   -1.8027   25.0308 C   0  0  0  0  0  0  0  0  0  0  0  0
    8.1652   -0.7601   24.2932 C   0  0  0  0  0  0  0  0  0  0  0  0
    8.8756    0.3650   23.6007 N   0  0  0  0  0  0  0  0  0  0  0  0
   10.3726    0.4475   23.6459 C   0  0  0  0  0  0  0  0  0  0  0  0
   11.0830    1.5726   22.9534 O   0  0  0  0  0  0  0  0  0  0  0  0
   11.1593   -0.5951   24.3835 C   0  0  0  0  0  0  0  0  0  0  0  0
   12.6563   -0.5127   24.4286 C   0  0  0  0  0  0  0  0  0  0  0  0
   13.4430   -1.5553   25.1663 C   0  0  0  0  0  0  0  0  0  0  0  0
   12.7326   -2.6804   25.8587 C   0  0  0  0  0  0  0  0  0  0  0  0
   13.5193   -3.7230   26.5964 F   0  0  0  0  0  0  0  0  0  0  0  0
   11.2356   -2.7628   25.8136 C   0  0  0  0  0  0  0  0  0  0  0  0
   10.4489   -1.7202   25.0760 C   0  0  0  0  0  0  0  0  0  0  0  0
    5.8497   -3.8413   26.1651 C   0  0  0  0  0  0  0  0  0  0  0  0
    5.1832   -3.5642   27.4799 C   0  0  0  0  0  0  0  0  0  0  0  0
    3.8335   -4.1486   27.7745 N   0  0  0  0  0  0  0  0  0  0  0  0
    3.1503   -5.0100   26.7541 C   0  0  0  0  0  0  0  0  0  0  0  0
    3.8168   -5.2871   25.4392 C   0  0  0  0  0  0  0  0  0  0  0  0
    3.1336   -6.1486   24.4188 C   0  0  0  0  0  0  0  0  0  0  0  0
    3.8002   -6.4256   23.1039 C   0  0  0  0  0  0  0  0  0  0  0  0
    5.1498   -5.8412   22.8094 C   0  0  0  0  0  0  0  0  0  0  0  0
    5.8330   -4.9798   23.8298 C   0  0  0  0  0  0  0  0  0  0  0  0
    5.1666   -4.7027   25.1446 C   0  0  0  0  0  0  0  0  0  0  0  0
    8.0888    1.4077   22.8631 C   0  0  0  0  0  0  0  0  0  0  0  0
    7.7134    2.6881   23.5482 C   0  0  0  0  0  0  0  0  0  0  0  0
    7.0573    2.8098   24.8916 C   0  0  0  0  0  0  0  0  0  0  0  0
    6.8666    4.2686   25.1839 O   0  0  0  0  0  0  0  0  0  0  0  0
    7.4048    5.0486   24.0212 C   0  0  0  0  0  0  0  0  0  0  0  0
    7.9282    4.0718   23.0103 N   0  0  0  0  0  0  0  0  0  0  0  0
  2  1  1  0  0  0
  2  3  1  0  0  0
  3  4  1  0  0  0
  4 19  1  0  0  0
 19 20  2  0  0  0
 20 21  1  0  0  0
 21 22  2  0  0  0
 22 23  1  0  0  0
 23 24  2  0  0  0
 24 25  1  0  0  0
 25 26  2  0  0  0
 26 27  1  0  0  0
 27 28  2  0  0  0
  4  5  1  0  0  0
  5  6  2  0  0  0
  5  7  1  0  0  0
  7  8  1  0  0  0
  8  9  1  0  0  0
  9 29  1  0  0  0
 29 30  1  0  0  0
 30 31  2  0  0  0
 31 32  1  0  0  0
 32 33  1  0  0  0
 33 34  2  0  0  0
  9 10  1  0  0  0
 10 11  2  0  0  0
 10 12  1  0  0  0
 12 13  2  0  0  0
 13 14  1  0  0  0
 14 15  2  0  0  0
 15 16  1  0  0  0
 15 17  1  0  0  0
 17 18  2  0  0  0
  7  2  1  0  0  0
 34 30  1  0  0  0
 18 12  1  0  0  0
 28 19  1  0  0  0
 18  7  1  0  0  0
 28 23  1  0  0  0
M  END
> <minimizedAffinity>
-8.02910

> <CNNscore>
0.2807223797

> <CNNaffinity>
6.5074729919

> <CNN_VS>
1.8267933130

> <CNNaffinity_variance>
0.3436967432

$$$$
