


 25 27  0  0  0  0  0  0  0  0999 V2000
    9.9402   -0.6076   23.4187 C   0  0  0  0  0  0  0  0  0  0  0  0
   10.7342   -1.4733   24.3516 C   0  0  0  0  0  0  0  0  0  0  0  0
   10.2151   -2.8245   24.7453 C   0  0  0  0  0  0  0  0  0  0  0  0
    8.9022   -3.3099   24.2063 C   0  0  0  0  0  0  0  0  0  0  0  0
    8.1083   -2.4442   23.2734 C   0  0  0  0  0  0  0  0  0  0  0  0
    8.6273   -1.0931   22.8797 N   0  0  0  0  0  0  0  0  0  0  0  0
    7.8333   -0.2273   21.9468 C   0  0  0  0  0  0  0  0  0  0  0  0
    8.3524    1.1238   21.5530 O   0  0  0  0  0  0  0  0  0  0  0  0
   11.0090   -3.6903   25.6782 C   0  0  0  0  0  0  0  0  0  0  0  0
   11.8030   -4.5560   26.6110 F   0  0  0  0  0  0  0  0  0  0  0  0
    9.8316   -4.6072   25.8293 F   0  0  0  0  0  0  0  0  0  0  0  0
   12.1865   -2.7733   25.5271 F   0  0  0  0  0  0  0  0  0  0  0  0
   11.8571    1.1458   23.3909 C   0  0  0  0  0  0  0  0  0  0  0  0
   10.4592    0.7435   23.0249 C   0  0  0  0  0  0  0  0  0  0  0  0
    6.5204   -0.7127   21.4078 C   0  0  0  0  0  0  0  0  0  0  0  0
    5.9251   -0.0687   20.1908 C   0  0  0  0  0  0  0  0  0  0  0  0
    6.5694   -0.2601   18.8499 C   0  0  0  0  0  0  0  0  0  0  0  0
    5.9741    0.3839   17.6330 N   0  0  0  0  0  0  0  0  0  0  0  0
    4.7345    1.2192   17.7570 C   0  0  0  0  0  0  0  0  0  0  0  0
    4.0901    1.4106   19.0980 C   0  0  0  0  0  0  0  0  0  0  0  0
    2.8505    2.2460   19.2220 C   0  0  0  0  0  0  0  0  0  0  0  0
    2.2061    2.4374   20.5630 C   0  0  0  0  0  0  0  0  0  0  0  0
    2.8014    1.7934   21.7799 C   0  0  0  0  0  0  0  0  0  0  0  0
    4.0411    0.9580   21.6559 C   0  0  0  0  0  0  0  0  0  0  0  0
    4.6854    0.7666   20.3149 C   0  0  0  0  0  0  0  0  0  0  0  0
 13 14  1  0  0  0
  1 14  1  0  0  0
  1  2  1  0  0  0
  2  3  1  0  0  0
  3  9  1  0  0  0
  9 10  1  0  0  0
  9 11  1  0  0  0
  9 12  1  0  0  0
  3  4  1  0  0  0
  4  5  1  0  0  0
  5  6  1  0  0  0
  6  7  1  0  0  0
  7  8  2  0  0  0
  7 15  1  0  0  0
 15 16  1  0  0  0
 16 17  2  0  0  0
 17 18  1  0  0  0
 18 19  2  0  0  0
 19 20  1  0  0  0
 20 21  2  0  0  0
 21 22  1  0  0  0
 22 23  2  0  0  0
 23 24  1  0  0  0
 24 25  2  0  0  0
  6  1  1  0  0  0
 25 16  1  0  0  0
 25 20  1  0  0  0
M  END
> <minimizedAffinity>
-7.71436

> <CNNscore>
0.6977788806

> <CNNaffinity>
5.8503007889

> <CNN_VS>
4.0822162628

> <CNNaffinity_variance>
0.0250335578

$$$$



 25 27  0  0  0  0  0  0  0  0999 V2000
    7.2383   -3.6543   23.6979 C   0  0  0  0  0  0  0  0  0  0  0  0
    8.1201   -4.1864   24.7884 C   0  0  0  0  0  0  0  0  0  0  0  0
    9.1416   -3.2942   25.4292 C   0  0  0  0  0  0  0  0  0  0  0  0
    9.2813   -1.8701   24.9796 C   0  0  0  0  0  0  0  0  0  0  0  0
    8.3994   -1.3380   23.8891 C   0  0  0  0  0  0  0  0  0  0  0  0
    7.3779   -2.2301   23.2482 N   0  0  0  0  0  0  0  0  0  0  0  0
    6.4960   -1.6980   22.1577 C   0  0  0  0  0  0  0  0  0  0  0  0
    5.4745   -2.5902   21.5169 O   0  0  0  0  0  0  0  0  0  0  0  0
   10.0235   -3.8263   26.5197 C   0  0  0  0  0  0  0  0  0  0  0  0
   10.9054   -4.3584   27.6102 F   0  0  0  0  0  0  0  0  0  0  0  0
    8.9372   -3.5719   27.5224 F   0  0  0  0  0  0  0  0  0  0  0  0
   11.1098   -4.0808   25.5171 F   0  0  0  0  0  0  0  0  0  0  0  0
    6.6307   -5.8687   22.4826 C   0  0  0  0  0  0  0  0  0  0  0  0
    6.2168   -4.5464   23.0570 C   0  0  0  0  0  0  0  0  0  0  0  0
    6.6357   -0.2738   21.7081 C   0  0  0  0  0  0  0  0  0  0  0  0
    6.0405    0.1621   20.4020 C   0  0  0  0  0  0  0  0  0  0  0  0
    6.7315   -0.1738   19.1137 C   0  0  0  0  0  0  0  0  0  0  0  0
    6.1363    0.2622   17.8076 N   0  0  0  0  0  0  0  0  0  0  0  0
    4.8502    1.0339   17.7899 C   0  0  0  0  0  0  0  0  0  0  0  0
    4.1592    1.3698   19.0782 C   0  0  0  0  0  0  0  0  0  0  0  0
    2.8731    2.1415   19.0605 C   0  0  0  0  0  0  0  0  0  0  0  0
    2.1822    2.4773   20.3488 C   0  0  0  0  0  0  0  0  0  0  0  0
    2.7773    2.0414   21.6548 C   0  0  0  0  0  0  0  0  0  0  0  0
    4.0634    1.2697   21.6726 C   0  0  0  0  0  0  0  0  0  0  0  0
    4.7544    0.9338   20.3843 C   0  0  0  0  0  0  0  0  0  0  0  0
 13 14  1  0  0  0
  1 14  1  0  0  0
  1  2  1  0  0  0
  2  3  1  0  0  0
  3  9  1  0  0  0
  9 10  1  0  0  0
  9 11  1  0  0  0
  9 12  1  0  0  0
  3  4  1  0  0  0
  4  5  1  0  0  0
  5  6  1  0  0  0
  6  7  1  0  0  0
  7  8  2  0  0  0
  7 15  1  0  0  0
 15 16  1  0  0  0
 16 17  2  0  0  0
 17 18  1  0  0  0
 18 19  2  0  0  0
 19 20  1  0  0  0
 20 21  2  0  0  0
 21 22  1  0  0  0
 22 23  2  0  0  0
 23 24  1  0  0  0
 24 25  2  0  0  0
  6  1  1  0  0  0
 25 16  1  0  0  0
 25 20  1  0  0  0
M  END
> <minimizedAffinity>
-7.25910

> <CNNscore>
0.6946741939

> <CNNaffinity>
5.7742929459

> <CNN_VS>
4.0112524033

> <CNNaffinity_variance>
0.0137101058

$$$$



 25 27  0  0  0  0  0  0  0  0999 V2000
   10.7318    0.8393   23.0186 C   0  0  0  0  0  0  0  0  0  0  0  0
   11.8387    0.3006   23.8756 C   0  0  0  0  0  0  0  0  0  0  0  0
   11.9128   -1.1686   24.1691 C   0  0  0  0  0  0  0  0  0  0  0  0
   10.8799   -2.0990   23.6056 C   0  0  0  0  0  0  0  0  0  0  0  0
    9.7730   -1.5602   22.7486 C   0  0  0  0  0  0  0  0  0  0  0  0
    9.6989   -0.0911   22.4551 N   0  0  0  0  0  0  0  0  0  0  0  0
    8.5919    0.4476   21.5981 C   0  0  0  0  0  0  0  0  0  0  0  0
    8.5179    1.9168   21.3047 O   0  0  0  0  0  0  0  0  0  0  0  0
   13.0197   -1.7073   25.0261 C   0  0  0  0  0  0  0  0  0  0  0  0
   14.1267   -2.2461   25.8830 F   0  0  0  0  0  0  0  0  0  0  0  0
   13.6784   -2.2883   23.8101 F   0  0  0  0  0  0  0  0  0  0  0  0
   12.3611   -1.1263   26.2421 F   0  0  0  0  0  0  0  0  0  0  0  0
   11.9162    3.1193   22.6336 C   0  0  0  0  0  0  0  0  0  0  0  0
   10.6577    2.3084   22.7251 C   0  0  0  0  0  0  0  0  0  0  0  0
    7.5591   -0.4827   21.0346 C   0  0  0  0  0  0  0  0  0  0  0  0
    6.5099    0.0398   20.0986 C   0  0  0  0  0  0  0  0  0  0  0  0
    6.7117   -0.0587   18.6155 C   0  0  0  0  0  0  0  0  0  0  0  0
    5.6625    0.4638   17.6795 N   0  0  0  0  0  0  0  0  0  0  0  0
    4.4115    1.0848   18.2265 C   0  0  0  0  0  0  0  0  0  0  0  0
    4.2096    1.1833   19.7096 C   0  0  0  0  0  0  0  0  0  0  0  0
    2.9586    1.8043   20.2566 C   0  0  0  0  0  0  0  0  0  0  0  0
    2.7567    1.9027   21.7396 C   0  0  0  0  0  0  0  0  0  0  0  0
    3.8059    1.3802   22.6757 C   0  0  0  0  0  0  0  0  0  0  0  0
    5.0569    0.7593   22.1287 C   0  0  0  0  0  0  0  0  0  0  0  0
    5.2588    0.6608   20.6457 C   0  0  0  0  0  0  0  0  0  0  0  0
 13 14  1  0  0  0
  1 14  1  0  0  0
  1  2  1  0  0  0
  2  3  1  0  0  0
  3  9  1  0  0  0
  9 10  1  0  0  0
  9 11  1  0  0  0
  9 12  1  0  0  0
  3  4  1  0  0  0
  4  5  1  0  0  0
  5  6  1  0  0  0
  6  7  1  0  0  0
  7  8  2  0  0  0
  7 15  1  0  0  0
 15 16  1  0  0  0
 16 17  2  0  0  0
 17 18  1  0  0  0
 18 19  2  0  0  0
 19 20  1  0  0  0
 20 21  2  0  0  0
 21 22  1  0  0  0
 22 23  2  0  0  0
 23 24  1  0  0  0
 24 25  2  0  0  0
  6  1  1  0  0  0
 25 16  1  0  0  0
 25 20  1  0  0  0
M  END
> <minimizedAffinity>
-8.56864

> <CNNscore>
0.6660973430

> <CNNaffinity>
5.9720878601

> <CNN_VS>
3.9779918194

> <CNNaffinity_variance>
0.1368637383

$$$$



 25 27  0  0  0  0  0  0  0  0999 V2000
    9.3642   -2.2892   23.5791 C   0  0  0  0  0  0  0  0  0  0  0  0
   10.6276   -2.5172   24.3550 C   0  0  0  0  0  0  0  0  0  0  0  0
   11.7300   -1.5010   24.3083 C   0  0  0  0  0  0  0  0  0  0  0  0
   11.5691   -0.2570   23.4859 C   0  0  0  0  0  0  0  0  0  0  0  0
   10.3057   -0.0290   22.7101 C   0  0  0  0  0  0  0  0  0  0  0  0
    9.2033   -1.0451   22.7567 N   0  0  0  0  0  0  0  0  0  0  0  0
    7.9399   -0.8171   21.9809 C   0  0  0  0  0  0  0  0  0  0  0  0
    6.8374   -1.8333   22.0275 O   0  0  0  0  0  0  0  0  0  0  0  0
   12.9934   -1.7289   25.0842 C   0  0  0  0  0  0  0  0  0  0  0  0
   14.2568   -1.9569   25.8600 F   0  0  0  0  0  0  0  0  0  0  0  0
   13.6426   -2.3011   23.8589 F   0  0  0  0  0  0  0  0  0  0  0  0
   12.3443   -1.1567   26.3094 F   0  0  0  0  0  0  0  0  0  0  0  0
    8.0572   -4.1339   24.8592 C   0  0  0  0  0  0  0  0  0  0  0  0
    8.2618   -3.3053   23.6257 C   0  0  0  0  0  0  0  0  0  0  0  0
    7.7789    0.4269   21.1584 C   0  0  0  0  0  0  0  0  0  0  0  0
    6.7439    0.4804   20.0740 C   0  0  0  0  0  0  0  0  0  0  0  0
    6.8650   -0.4151   18.8769 C   0  0  0  0  0  0  0  0  0  0  0  0
    5.8300   -0.3616   17.7925 N   0  0  0  0  0  0  0  0  0  0  0  0
    4.6739    0.5874   17.9052 C   0  0  0  0  0  0  0  0  0  0  0  0
    4.5528    1.4830   19.1025 C   0  0  0  0  0  0  0  0  0  0  0  0
    3.3968    2.4321   19.2152 C   0  0  0  0  0  0  0  0  0  0  0  0
    3.2757    3.3276   20.4124 C   0  0  0  0  0  0  0  0  0  0  0  0
    4.3107    3.2741   21.4968 C   0  0  0  0  0  0  0  0  0  0  0  0
    5.4667    2.3251   21.3840 C   0  0  0  0  0  0  0  0  0  0  0  0
    5.5878    1.4295   20.1869 C   0  0  0  0  0  0  0  0  0  0  0  0
 13 14  1  0  0  0
  1 14  1  0  0  0
  1  2  1  0  0  0
  2  3  1  0  0  0
  3  9  1  0  0  0
  9 10  1  0  0  0
  9 11  1  0  0  0
  9 12  1  0  0  0
  3  4  1  0  0  0
  4  5  1  0  0  0
  5  6  1  0  0  0
  6  7  1  0  0  0
  7  8  2  0  0  0
  7 15  1  0  0  0
 15 16  1  0  0  0
 16 17  2  0  0  0
 17 18  1  0  0  0
 18 19  2  0  0  0
 19 20  1  0  0  0
 20 21  2  0  0  0
 21 22  1  0  0  0
 22 23  2  0  0  0
 23 24  1  0  0  0
 24 25  2  0  0  0
  6  1  1  0  0  0
 25 16  1  0  0  0
 25 20  1  0  0  0
M  END
> <minimizedAffinity>
-8.22542

> <CNNscore>
0.6290994287

> <CNNaffinity>
5.8769645691

> <CNN_VS>
3.6971950531

> <CNNaffinity_variance>
0.0594389960

$$$$



 25 27  0  0  0  0  0  0  0  0999 V2000
   10.9013    2.6800   22.8575 C   0  0  0  0  0  0  0  0  0  0  0  0
    9.6523    3.4919   23.0332 C   0  0  0  0  0  0  0  0  0  0  0  0
    8.3293    2.8056   23.2025 C   0  0  0  0  0  0  0  0  0  0  0  0
    8.2552    1.3075   23.1960 C   0  0  0  0  0  0  0  0  0  0  0  0
    9.5042    0.4956   23.0203 C   0  0  0  0  0  0  0  0  0  0  0  0
   10.8272    1.1818   22.8511 N   0  0  0  0  0  0  0  0  0  0  0  0
   12.0762    0.3699   22.6754 C   0  0  0  0  0  0  0  0  0  0  0  0
   13.3993    1.0562   22.5061 O   0  0  0  0  0  0  0  0  0  0  0  0
    7.0803    3.6175   23.3782 C   0  0  0  0  0  0  0  0  0  0  0  0
    5.8313    4.4294   23.5539 F   0  0  0  0  0  0  0  0  0  0  0  0
    7.2375    3.5370   24.8678 F   0  0  0  0  0  0  0  0  0  0  0  0
    6.9231    3.6981   21.8886 F   0  0  0  0  0  0  0  0  0  0  0  0
   12.3079    4.6571   21.9289 C   0  0  0  0  0  0  0  0  0  0  0  0
   12.2243    3.3662   22.6883 C   0  0  0  0  0  0  0  0  0  0  0  0
   12.0022   -1.1282   22.6689 C   0  0  0  0  0  0  0  0  0  0  0  0
   12.1620   -1.8926   23.9496 C   0  0  0  0  0  0  0  0  0  0  0  0
   13.4726   -1.8685   24.6788 C   0  0  0  0  0  0  0  0  0  0  0  0
   13.6325   -2.6329   25.9595 N   0  0  0  0  0  0  0  0  0  0  0  0
   12.4818   -3.4213   26.5110 C   0  0  0  0  0  0  0  0  0  0  0  0
   11.1711   -3.4455   25.7818 C   0  0  0  0  0  0  0  0  0  0  0  0
   10.0204   -4.2339   26.3333 C   0  0  0  0  0  0  0  0  0  0  0  0
    8.7099   -4.2580   25.6041 C   0  0  0  0  0  0  0  0  0  0  0  0
    8.5500   -3.4936   24.3234 C   0  0  0  0  0  0  0  0  0  0  0  0
    9.7007   -2.7052   23.7719 C   0  0  0  0  0  0  0  0  0  0  0  0
   11.0113   -2.6811   24.5011 C   0  0  0  0  0  0  0  0  0  0  0  0
 13 14  1  0  0  0
  1 14  1  0  0  0
  1  2  1  0  0  0
  2  3  1  0  0  0
  3  9  1  0  0  0
  9 10  1  0  0  0
  9 11  1  0  0  0
  9 12  1  0  0  0
  3  4  1  0  0  0
  4  5  1  0  0  0
  5  6  1  0  0  0
  6  7  1  0  0  0
  7  8  2  0  0  0
  7 15  1  0  0  0
 15 16  1  0  0  0
 16 17  2  0  0  0
 17 18  1  0  0  0
 18 19  2  0  0  0
 19 20  1  0  0  0
 20 21  2  0  0  0
 21 22  1  0  0  0
 22 23  2  0  0  0
 23 24  1  0  0  0
 24 25  2  0  0  0
  6  1  1  0  0  0
 25 16  1  0  0  0
 25 20  1  0  0  0
M  END
> <minimizedAffinity>
-7.18414

> <CNNscore>
0.5643464327

> <CNNaffinity>
5.9010543823

> <CNN_VS>
3.3302390575

> <CNNaffinity_variance>
0.2954767346

$$$$



 25 27  0  0  0  0  0  0  0  0999 V2000
    9.1192    1.9255   22.5512 C   0  0  0  0  0  0  0  0  0  0  0  0
    9.4270    3.3911   22.6360 C   0  0  0  0  0  0  0  0  0  0  0  0
   10.8500    3.8535   22.7438 C   0  0  0  0  0  0  0  0  0  0  0  0
   11.9649    2.8504   22.7667 C   0  0  0  0  0  0  0  0  0  0  0  0
   11.6570    1.3848   22.6819 C   0  0  0  0  0  0  0  0  0  0  0  0
   10.2342    0.9223   22.5742 N   0  0  0  0  0  0  0  0  0  0  0  0
    9.9263   -0.5433   22.4894 C   0  0  0  0  0  0  0  0  0  0  0  0
    8.5034   -1.0058   22.3816 O   0  0  0  0  0  0  0  0  0  0  0  0
   11.1579    5.3191   22.8285 C   0  0  0  0  0  0  0  0  0  0  0  0
   11.4657    6.7847   22.9133 F   0  0  0  0  0  0  0  0  0  0  0  0
   12.5526    5.0541   22.3442 F   0  0  0  0  0  0  0  0  0  0  0  0
    9.7631    5.5841   23.3129 F   0  0  0  0  0  0  0  0  0  0  0  0
    6.8404    1.9296   21.3034 C   0  0  0  0  0  0  0  0  0  0  0  0
    7.6963    1.4630   22.4434 C   0  0  0  0  0  0  0  0  0  0  0  0
   11.0412   -1.5465   22.5124 C   0  0  0  0  0  0  0  0  0  0  0  0
   11.6849   -1.9227   23.8139 C   0  0  0  0  0  0  0  0  0  0  0  0
   13.1178   -1.5630   24.0736 C   0  0  0  0  0  0  0  0  0  0  0  0
   13.7614   -1.9393   25.3752 N   0  0  0  0  0  0  0  0  0  0  0  0
   12.9723   -2.6752   26.4171 C   0  0  0  0  0  0  0  0  0  0  0  0
   11.5393   -3.0349   26.1574 C   0  0  0  0  0  0  0  0  0  0  0  0
   10.7501   -3.7708   27.1993 C   0  0  0  0  0  0  0  0  0  0  0  0
    9.3172   -4.1305   26.9396 C   0  0  0  0  0  0  0  0  0  0  0  0
    8.6736   -3.7542   25.6380 C   0  0  0  0  0  0  0  0  0  0  0  0
    9.4628   -3.0183   24.5962 C   0  0  0  0  0  0  0  0  0  0  0  0
   10.8956   -2.6587   24.8559 C   0  0  0  0  0  0  0  0  0  0  0  0
 13 14  1  0  0  0
  1 14  1  0  0  0
  1  2  1  0  0  0
  2  3  1  0  0  0
  3  9  1  0  0  0
  9 10  1  0  0  0
  9 11  1  0  0  0
  9 12  1  0  0  0
  3  4  1  0  0  0
  4  5  1  0  0  0
  5  6  1  0  0  0
  6  7  1  0  0  0
  7  8  2  0  0  0
  7 15  1  0  0  0
 15 16  1  0  0  0
 16 17  2  0  0  0
 17 18  1  0  0  0
 18 19  2  0  0  0
 19 20  1  0  0  0
 20 21  2  0  0  0
 21 22  1  0  0  0
 22 23  2  0  0  0
 23 24  1  0  0  0
 24 25  2  0  0  0
  6  1  1  0  0  0
 25 16  1  0  0  0
 25 20  1  0  0  0
M  END
> <minimizedAffinity>
-7.06747

> <CNNscore>
0.5325550437

> <CNNaffinity>
6.0028095245

> <CNN_VS>
3.1968264580

> <CNNaffinity_variance>
0.1111413464

$$$$



 25 27  0  0  0  0  0  0  0  0999 V2000
    8.3891    1.7027   22.1068 C   0  0  0  0  0  0  0  0  0  0  0  0
    7.1247    1.9821   21.3497 C   0  0  0  0  0  0  0  0  0  0  0  0
    6.5094    0.9125   20.4966 C   0  0  0  0  0  0  0  0  0  0  0  0
    7.1585   -0.4363   20.4008 C   0  0  0  0  0  0  0  0  0  0  0  0
    8.4229   -0.7157   21.1579 C   0  0  0  0  0  0  0  0  0  0  0  0
    9.0382    0.3537   22.0109 N   0  0  0  0  0  0  0  0  0  0  0  0
   10.3026    0.0743   22.7681 C   0  0  0  0  0  0  0  0  0  0  0  0
   10.9178    1.1438   23.6211 O   0  0  0  0  0  0  0  0  0  0  0  0
    5.2450    1.1920   19.7395 C   0  0  0  0  0  0  0  0  0  0  0  0
    3.9807    1.4714   18.9823 F   0  0  0  0  0  0  0  0  0  0  0  0
    4.6408    1.7970   20.9719 F   0  0  0  0  0  0  0  0  0  0  0  0
    5.8493    0.5869   18.5071 F   0  0  0  0  0  0  0  0  0  0  0  0
    8.2028    3.9813   23.3408 C   0  0  0  0  0  0  0  0  0  0  0  0
    9.0044    2.7721   22.9598 C   0  0  0  0  0  0  0  0  0  0  0  0
   10.9516   -1.2746   22.6722 C   0  0  0  0  0  0  0  0  0  0  0  0
   11.6330   -1.8659   23.8706 C   0  0  0  0  0  0  0  0  0  0  0  0
   13.1280   -1.8188   23.9825 C   0  0  0  0  0  0  0  0  0  0  0  0
   13.8094   -2.4101   25.1809 N   0  0  0  0  0  0  0  0  0  0  0  0
   12.9957   -3.0485   26.2673 C   0  0  0  0  0  0  0  0  0  0  0  0
   11.5006   -3.0956   26.1554 C   0  0  0  0  0  0  0  0  0  0  0  0
   10.6869   -3.7340   27.2418 C   0  0  0  0  0  0  0  0  0  0  0  0
    9.1919   -3.7811   27.1299 C   0  0  0  0  0  0  0  0  0  0  0  0
    8.5105   -3.1897   25.9315 C   0  0  0  0  0  0  0  0  0  0  0  0
    9.3242   -2.5514   24.8451 C   0  0  0  0  0  0  0  0  0  0  0  0
   10.8192   -2.5043   24.9570 C   0  0  0  0  0  0  0  0  0  0  0  0
 13 14  1  0  0  0
  1 14  1  0  0  0
  1  2  1  0  0  0
  2  3  1  0  0  0
  3  9  1  0  0  0
  9 10  1  0  0  0
  9 11  1  0  0  0
  9 12  1  0  0  0
  3  4  1  0  0  0
  4  5  1  0  0  0
  5  6  1  0  0  0
  6  7  1  0  0  0
  7  8  2  0  0  0
  7 15  1  0  0  0
 15 16  1  0  0  0
 16 17  2  0  0  0
 17 18  1  0  0  0
 18 19  2  0  0  0
 19 20  1  0  0  0
 20 21  2  0  0  0
 21 22  1  0  0  0
 22 23  2  0  0  0
 23 24  1  0  0  0
 24 25  2  0  0  0
  6  1  1  0  0  0
 25 16  1  0  0  0
 25 20  1  0  0  0
M  END
> <minimizedAffinity>
-7.56205

> <CNNscore>
0.4403988123

> <CNNaffinity>
5.8352775574

> <CNN_VS>
2.5698492527

> <CNNaffinity_variance>
0.0568562821

$$$$



 25 27  0  0  0  0  0  0  0  0999 V2000
   10.9622    0.7087   23.3423 C   0  0  0  0  0  0  0  0  0  0  0  0
   11.8915   -0.0224   24.2653 C   0  0  0  0  0  0  0  0  0  0  0  0
   11.3998   -1.2099   25.0386 C   0  0  0  0  0  0  0  0  0  0  0  0
    9.9788   -1.6663   24.8890 C   0  0  0  0  0  0  0  0  0  0  0  0
    9.0495   -0.9352   23.9660 C   0  0  0  0  0  0  0  0  0  0  0  0
    9.5412    0.2523   23.1927 N   0  0  0  0  0  0  0  0  0  0  0  0
    8.6119    0.9834   22.2697 C   0  0  0  0  0  0  0  0  0  0  0  0
    9.1036    2.1710   21.4964 O   0  0  0  0  0  0  0  0  0  0  0  0
   12.3291   -1.9411   25.9616 C   0  0  0  0  0  0  0  0  0  0  0  0
   13.2584   -2.6722   26.8845 F   0  0  0  0  0  0  0  0  0  0  0  0
   13.4918   -1.1859   25.3891 F   0  0  0  0  0  0  0  0  0  0  0  0
   11.1663   -2.6963   26.5340 F   0  0  0  0  0  0  0  0  0  0  0  0
   11.7682    3.1778   23.2822 C   0  0  0  0  0  0  0  0  0  0  0  0
   11.4539    1.8962   22.5690 C   0  0  0  0  0  0  0  0  0  0  0  0
    7.1909    0.5271   22.1201 C   0  0  0  0  0  0  0  0  0  0  0  0
    6.5487    0.5061   20.7647 C   0  0  0  0  0  0  0  0  0  0  0  0
    7.1158   -0.3602   19.6794 C   0  0  0  0  0  0  0  0  0  0  0  0
    6.4736   -0.3812   18.3240 N   0  0  0  0  0  0  0  0  0  0  0  0
    5.2642    0.4641   18.0538 C   0  0  0  0  0  0  0  0  0  0  0  0
    4.6970    1.3304   19.1392 C   0  0  0  0  0  0  0  0  0  0  0  0
    3.4877    2.1756   18.8691 C   0  0  0  0  0  0  0  0  0  0  0  0
    2.9205    3.0418   19.9544 C   0  0  0  0  0  0  0  0  0  0  0  0
    3.5628    3.0629   21.3098 C   0  0  0  0  0  0  0  0  0  0  0  0
    4.7721    2.2176   21.5799 C   0  0  0  0  0  0  0  0  0  0  0  0
    5.3392    1.3514   20.4946 C   0  0  0  0  0  0  0  0  0  0  0  0
 13 14  1  0  0  0
  1 14  1  0  0  0
  1  2  1  0  0  0
  2  3  1  0  0  0
  3  9  1  0  0  0
  9 10  1  0  0  0
  9 11  1  0  0  0
  9 12  1  0  0  0
  3  4  1  0  0  0
  4  5  1  0  0  0
  5  6  1  0  0  0
  6  7  1  0  0  0
  7  8  2  0  0  0
  7 15  1  0  0  0
 15 16  1  0  0  0
 16 17  2  0  0  0
 17 18  1  0  0  0
 18 19  2  0  0  0
 19 20  1  0  0  0
 20 21  2  0  0  0
 21 22  1  0  0  0
 22 23  2  0  0  0
 23 24  1  0  0  0
 24 25  2  0  0  0
  6  1  1  0  0  0
 25 16  1  0  0  0
 25 20  1  0  0  0
M  END
> <minimizedAffinity>
-8.15448

> <CNNscore>
0.4377724826

> <CNNaffinity>
5.6604309082

> <CNN_VS>
2.4779808521

> <CNNaffinity_variance>
0.1458047181

$$$$



 25 27  0  0  0  0  0  0  0  0999 V2000
    8.5149    1.8873   22.1741 C   0  0  0  0  0  0  0  0  0  0  0  0
    9.0100    3.2882   22.3801 C   0  0  0  0  0  0  0  0  0  0  0  0
   10.4385    3.5292   22.7690 C   0  0  0  0  0  0  0  0  0  0  0  0
   11.3720    2.3694   22.9519 C   0  0  0  0  0  0  0  0  0  0  0  0
   10.8769    0.9685   22.7459 C   0  0  0  0  0  0  0  0  0  0  0  0
    9.4485    0.7274   22.3570 N   0  0  0  0  0  0  0  0  0  0  0  0
    8.9534   -0.6735   22.1511 C   0  0  0  0  0  0  0  0  0  0  0  0
    7.5249   -0.9145   21.7621 O   0  0  0  0  0  0  0  0  0  0  0  0
   10.9336    4.9301   22.9750 C   0  0  0  0  0  0  0  0  0  0  0  0
   11.4286    6.3310   23.1810 F   0  0  0  0  0  0  0  0  0  0  0  0
   12.3494    4.4436   22.8811 F   0  0  0  0  0  0  0  0  0  0  0  0
    9.5178    5.4166   23.0688 F   0  0  0  0  0  0  0  0  0  0  0  0
    6.1900    2.8058   21.4664 C   0  0  0  0  0  0  0  0  0  0  0  0
    7.0865    1.6462   21.7852 C   0  0  0  0  0  0  0  0  0  0  0  0
    9.8869   -1.8333   22.3340 C   0  0  0  0  0  0  0  0  0  0  0  0
    9.8585   -2.6252   23.6075 C   0  0  0  0  0  0  0  0  0  0  0  0
    8.6310   -3.4025   23.9802 C   0  0  0  0  0  0  0  0  0  0  0  0
    8.6026   -4.1945   25.2537 N   0  0  0  0  0  0  0  0  0  0  0  0
    9.8018   -4.2092   26.1547 C   0  0  0  0  0  0  0  0  0  0  0  0
   11.0294   -3.4318   25.7821 C   0  0  0  0  0  0  0  0  0  0  0  0
   12.2286   -3.4465   26.6830 C   0  0  0  0  0  0  0  0  0  0  0  0
   13.4561   -2.6692   26.3104 C   0  0  0  0  0  0  0  0  0  0  0  0
   13.4845   -1.8772   25.0368 C   0  0  0  0  0  0  0  0  0  0  0  0
   12.2853   -1.8625   24.1359 C   0  0  0  0  0  0  0  0  0  0  0  0
   11.0578   -2.6399   24.5085 C   0  0  0  0  0  0  0  0  0  0  0  0
 13 14  1  0  0  0
  1 14  1  0  0  0
  1  2  1  0  0  0
  2  3  1  0  0  0
  3  9  1  0  0  0
  9 10  1  0  0  0
  9 11  1  0  0  0
  9 12  1  0  0  0
  3  4  1  0  0  0
  4  5  1  0  0  0
  5  6  1  0  0  0
  6  7  1  0  0  0
  7  8  2  0  0  0
  7 15  1  0  0  0
 15 16  1  0  0  0
 16 17  2  0  0  0
 17 18  1  0  0  0
 18 19  2  0  0  0
 19 20  1  0  0  0
 20 21  2  0  0  0
 21 22  1  0  0  0
 22 23  2  0  0  0
 23 24  1  0  0  0
 24 25  2  0  0  0
  6  1  1  0  0  0
 25 16  1  0  0  0
 25 20  1  0  0  0
M  END
> <minimizedAffinity>
-7.32616

> <CNNscore>
0.4247271121

> <CNNaffinity>
5.9059872627

> <CNN_VS>
2.5084328651

> <CNNaffinity_variance>
0.1410830617

$$$$
