


 25 27  0  0  0  0  0  0  0  0999 V2000
   -9.7968   -2.9031  -23.6456 C   0  0  0  0  0  0  0  0  0  0  0  0
  -10.2855   -3.7421  -24.7890 C   0  0  0  0  0  0  0  0  0  0  0  0
   -9.3448   -4.6787  -25.4876 C   0  0  0  0  0  0  0  0  0  0  0  0
   -7.9156   -4.7763  -25.0429 C   0  0  0  0  0  0  0  0  0  0  0  0
   -7.4270   -3.9373  -23.8995 C   0  0  0  0  0  0  0  0  0  0  0  0
   -8.3675   -3.0007  -23.2009 N   0  0  0  0  0  0  0  0  0  0  0  0
   -7.8789   -2.1618  -22.0575 C   0  0  0  0  0  0  0  0  0  0  0  0
   -8.8195   -1.2251  -21.3588 O   0  0  0  0  0  0  0  0  0  0  0  0
   -9.8335   -5.5177  -26.6310 C   0  0  0  0  0  0  0  0  0  0  0  0
  -10.3221   -6.3567  -27.7744 F   0  0  0  0  0  0  0  0  0  0  0  0
   -8.5718   -5.2227  -27.3867 F   0  0  0  0  0  0  0  0  0  0  0  0
  -11.0952   -5.8128  -25.8753 F   0  0  0  0  0  0  0  0  0  0  0  0
  -12.0934   -2.4453  -22.5205 C   0  0  0  0  0  0  0  0  0  0  0  0
  -10.7373   -1.9665  -22.9470 C   0  0  0  0  0  0  0  0  0  0  0  0
   -6.4497   -2.2594  -21.6127 C   0  0  0  0  0  0  0  0  0  0  0  0
   -5.9542   -1.4007  -20.4871 C   0  0  0  0  0  0  0  0  0  0  0  0
   -6.5276   -1.5639  -19.1107 C   0  0  0  0  0  0  0  0  0  0  0  0
   -6.0321   -0.7052  -17.9850 N   0  0  0  0  0  0  0  0  0  0  0  0
   -4.9632    0.3167  -18.2357 C   0  0  0  0  0  0  0  0  0  0  0  0
   -4.3896    0.4800  -19.6122 C   0  0  0  0  0  0  0  0  0  0  0  0
   -3.3207    1.5019  -19.8629 C   0  0  0  0  0  0  0  0  0  0  0  0
   -2.7472    1.6652  -21.2392 C   0  0  0  0  0  0  0  0  0  0  0  0
   -3.2427    0.8065  -22.3649 C   0  0  0  0  0  0  0  0  0  0  0  0
   -4.3117   -0.2154  -22.1142 C   0  0  0  0  0  0  0  0  0  0  0  0
   -4.8852   -0.3787  -20.7378 C   0  0  0  0  0  0  0  0  0  0  0  0
 13 14  1  0  0  0
  1 14  1  0  0  0
  1  2  1  0  0  0
  2  3  1  0  0  0
  3  9  1  0  0  0
  9 10  1  0  0  0
  9 11  1  0  0  0
  9 12  1  0  0  0
  3  4  1  0  0  0
  4  5  1  0  0  0
  5  6  1  0  0  0
  6  7  1  0  0  0
  7  8  2  0  0  0
  7 15  1  0  0  0
 15 16  1  0  0  0
 16 17  2  0  0  0
 17 18  1  0  0  0
 18 19  2  0  0  0
 19 20  1  0  0  0
 20 21  2  0  0  0
 21 22  1  0  0  0
 22 23  2  0  0  0
 23 24  1  0  0  0
 24 25  2  0  0  0
  6  1  1  0  0  0
 25 16  1  0  0  0
 25 20  1  0  0  0
M  END
> <minimizedAffinity>
-7.52888

> <CNNscore>
0.8068486452

> <CNNaffinity>
5.7091345787

> <CNN_VS>
4.6064076424

> <CNNaffinity_variance>
0.3716260195

$$$$



 25 27  0  0  0  0  0  0  0  0999 V2000
   -7.1408   -5.2507  -23.2458 C   0  0  0  0  0  0  0  0  0  0  0  0
   -7.9682   -5.9720  -24.2682 C   0  0  0  0  0  0  0  0  0  0  0  0
   -8.9462   -5.2113  -25.1137 C   0  0  0  0  0  0  0  0  0  0  0  0
   -9.0969   -3.7294  -24.9367 C   0  0  0  0  0  0  0  0  0  0  0  0
   -8.2696   -3.0082  -23.9143 C   0  0  0  0  0  0  0  0  0  0  0  0
   -7.2915   -3.7688  -23.0689 N   0  0  0  0  0  0  0  0  0  0  0  0
   -6.4641   -3.0476  -22.0465 C   0  0  0  0  0  0  0  0  0  0  0  0
   -5.4861   -3.8083  -21.2010 O   0  0  0  0  0  0  0  0  0  0  0  0
   -9.7736   -5.9325  -26.1361 C   0  0  0  0  0  0  0  0  0  0  0  0
  -10.6010   -6.6537  -27.1585 F   0  0  0  0  0  0  0  0  0  0  0  0
   -8.5553   -6.6760  -26.5975 F   0  0  0  0  0  0  0  0  0  0  0  0
  -10.9919   -5.1889  -25.6747 F   0  0  0  0  0  0  0  0  0  0  0  0
   -6.1963   -7.5108  -22.3800 C   0  0  0  0  0  0  0  0  0  0  0  0
   -6.1627   -6.0114  -22.4004 C   0  0  0  0  0  0  0  0  0  0  0  0
   -6.6148   -1.5657  -21.8695 C   0  0  0  0  0  0  0  0  0  0  0  0
   -6.0930   -0.9015  -20.6300 C   0  0  0  0  0  0  0  0  0  0  0  0
   -6.8010   -1.0932  -19.3216 C   0  0  0  0  0  0  0  0  0  0  0  0
   -6.2792   -0.4289  -18.0821 N   0  0  0  0  0  0  0  0  0  0  0  0
   -5.0493    0.4270  -18.1509 C   0  0  0  0  0  0  0  0  0  0  0  0
   -4.3412    0.6187  -19.4593 C   0  0  0  0  0  0  0  0  0  0  0  0
   -3.1113    1.4746  -19.5282 C   0  0  0  0  0  0  0  0  0  0  0  0
   -2.4033    1.6662  -20.8365 C   0  0  0  0  0  0  0  0  0  0  0  0
   -2.9251    1.0020  -22.0761 C   0  0  0  0  0  0  0  0  0  0  0  0
   -4.1550    0.1461  -22.0072 C   0  0  0  0  0  0  0  0  0  0  0  0
   -4.8630   -0.0456  -20.6989 C   0  0  0  0  0  0  0  0  0  0  0  0
 13 14  1  0  0  0
  1 14  1  0  0  0
  1  2  1  0  0  0
  2  3  1  0  0  0
  3  9  1  0  0  0
  9 10  1  0  0  0
  9 11  1  0  0  0
  9 12  1  0  0  0
  3  4  1  0  0  0
  4  5  1  0  0  0
  5  6  1  0  0  0
  6  7  1  0  0  0
  7  8  2  0  0  0
  7 15  1  0  0  0
 15 16  1  0  0  0
 16 17  2  0  0  0
 17 18  1  0  0  0
 18 19  2  0  0  0
 19 20  1  0  0  0
 20 21  2  0  0  0
 21 22  1  0  0  0
 22 23  2  0  0  0
 23 24  1  0  0  0
 24 25  2  0  0  0
  6  1  1  0  0  0
 25 16  1  0  0  0
 25 20  1  0  0  0
M  END
> <minimizedAffinity>
-7.70668

> <CNNscore>
0.7345743179

> <CNNaffinity>
5.7130012512

> <CNN_VS>
4.1966238022

> <CNNaffinity_variance>
0.4703916907

$$$$



 25 27  0  0  0  0  0  0  0  0999 V2000
  -12.8011   -0.7471  -23.2204 C   0  0  0  0  0  0  0  0  0  0  0  0
  -13.4156    0.6115  -23.0567 C   0  0  0  0  0  0  0  0  0  0  0  0
  -12.5927    1.8414  -23.3023 C   0  0  0  0  0  0  0  0  0  0  0  0
  -11.1554    1.7127  -23.7117 C   0  0  0  0  0  0  0  0  0  0  0  0
  -10.5410    0.3542  -23.8755 C   0  0  0  0  0  0  0  0  0  0  0  0
  -11.3638   -0.8757  -23.6298 N   0  0  0  0  0  0  0  0  0  0  0  0
  -10.7493   -2.2342  -23.7936 C   0  0  0  0  0  0  0  0  0  0  0  0
  -11.5722   -3.4641  -23.5479 O   0  0  0  0  0  0  0  0  0  0  0  0
  -13.2072    3.1999  -23.1386 C   0  0  0  0  0  0  0  0  0  0  0  0
  -13.8216    4.5585  -22.9749 F   0  0  0  0  0  0  0  0  0  0  0  0
  -13.1587    3.0422  -21.6477 F   0  0  0  0  0  0  0  0  0  0  0  0
  -13.2557    3.3577  -24.6295 F   0  0  0  0  0  0  0  0  0  0  0  0
  -13.8085   -2.4889  -21.5770 C   0  0  0  0  0  0  0  0  0  0  0  0
  -13.6239   -1.9769  -22.9747 C   0  0  0  0  0  0  0  0  0  0  0  0
   -9.3121   -2.3629  -24.2029 C   0  0  0  0  0  0  0  0  0  0  0  0
   -8.6418   -3.7046  -24.1763 C   0  0  0  0  0  0  0  0  0  0  0  0
   -7.8818   -4.1392  -22.9583 C   0  0  0  0  0  0  0  0  0  0  0  0
   -7.2115   -5.4809  -22.9317 N   0  0  0  0  0  0  0  0  0  0  0  0
   -7.3014   -6.3879  -24.1229 C   0  0  0  0  0  0  0  0  0  0  0  0
   -8.0615   -5.9534  -25.3409 C   0  0  0  0  0  0  0  0  0  0  0  0
   -8.1514   -6.8605  -26.5321 C   0  0  0  0  0  0  0  0  0  0  0  0
   -8.9115   -6.4259  -27.7500 C   0  0  0  0  0  0  0  0  0  0  0  0
   -9.5817   -5.0842  -27.7767 C   0  0  0  0  0  0  0  0  0  0  0  0
   -9.4918   -4.1771  -26.5855 C   0  0  0  0  0  0  0  0  0  0  0  0
   -8.7317   -4.6117  -25.3676 C   0  0  0  0  0  0  0  0  0  0  0  0
 13 14  1  0  0  0
  1 14  1  0  0  0
  1  2  1  0  0  0
  2  3  1  0  0  0
  3  9  1  0  0  0
  9 10  1  0  0  0
  9 11  1  0  0  0
  9 12  1  0  0  0
  3  4  1  0  0  0
  4  5  1  0  0  0
  5  6  1  0  0  0
  6  7  1  0  0  0
  7  8  2  0  0  0
  7 15  1  0  0  0
 15 16  1  0  0  0
 16 17  2  0  0  0
 17 18  1  0  0  0
 18 19  2  0  0  0
 19 20  1  0  0  0
 20 21  2  0  0  0
 21 22  1  0  0  0
 22 23  2  0  0  0
 23 24  1  0  0  0
 24 25  2  0  0  0
  6  1  1  0  0  0
 25 16  1  0  0  0
 25 20  1  0  0  0
M  END
> <minimizedAffinity>
-6.92322

> <CNNscore>
0.6746798158

> <CNNaffinity>
5.7726640701

> <CNN_VS>
3.8947000504

> <CNNaffinity_variance>
0.1134366393

$$$$



 25 27  0  0  0  0  0  0  0  0999 V2000
   -9.5600   -1.3475  -22.2357 C   0  0  0  0  0  0  0  0  0  0  0  0
   -8.4979   -1.9209  -21.3452 C   0  0  0  0  0  0  0  0  0  0  0  0
   -7.3508   -1.0638  -20.8981 C   0  0  0  0  0  0  0  0  0  0  0  0
   -7.2660    0.3666  -21.3416 C   0  0  0  0  0  0  0  0  0  0  0  0
   -8.3281    0.9400  -22.2321 C   0  0  0  0  0  0  0  0  0  0  0  0
   -9.4751    0.0830  -22.6791 N   0  0  0  0  0  0  0  0  0  0  0  0
  -10.5373    0.6565  -23.5696 C   0  0  0  0  0  0  0  0  0  0  0  0
  -11.6844   -0.2006  -24.0167 O   0  0  0  0  0  0  0  0  0  0  0  0
   -6.2886   -1.6373  -20.0077 C   0  0  0  0  0  0  0  0  0  0  0  0
   -5.2265   -2.2107  -19.1172 F   0  0  0  0  0  0  0  0  0  0  0  0
   -5.3672   -1.7587  -21.1850 F   0  0  0  0  0  0  0  0  0  0  0  0
   -7.2101   -1.5159  -18.8303 F   0  0  0  0  0  0  0  0  0  0  0  0
  -10.4604   -3.3753  -23.5872 C   0  0  0  0  0  0  0  0  0  0  0  0
  -10.7071   -2.2044  -22.6827 C   0  0  0  0  0  0  0  0  0  0  0  0
  -10.4525    2.0869  -24.0131 C   0  0  0  0  0  0  0  0  0  0  0  0
  -11.6031    3.0175  -23.7683 C   0  0  0  0  0  0  0  0  0  0  0  0
  -12.4714    2.8347  -22.5589 C   0  0  0  0  0  0  0  0  0  0  0  0
  -13.6221    3.7653  -22.3142 N   0  0  0  0  0  0  0  0  0  0  0  0
  -13.9044    4.8788  -23.2787 C   0  0  0  0  0  0  0  0  0  0  0  0
  -13.0361    5.0616  -24.4882 C   0  0  0  0  0  0  0  0  0  0  0  0
  -13.3185    6.1751  -25.4527 C   0  0  0  0  0  0  0  0  0  0  0  0
  -12.4502    6.3579  -26.6621 C   0  0  0  0  0  0  0  0  0  0  0  0
  -11.2995    5.4273  -26.9069 C   0  0  0  0  0  0  0  0  0  0  0  0
  -11.0172    4.3138  -25.9423 C   0  0  0  0  0  0  0  0  0  0  0  0
  -11.8855    4.1310  -24.7329 C   0  0  0  0  0  0  0  0  0  0  0  0
 13 14  1  0  0  0
  1 14  1  0  0  0
  1  2  1  0  0  0
  2  3  1  0  0  0
  3  9  1  0  0  0
  9 10  1  0  0  0
  9 11  1  0  0  0
  9 12  1  0  0  0
  3  4  1  0  0  0
  4  5  1  0  0  0
  5  6  1  0  0  0
  6  7  1  0  0  0
  7  8  2  0  0  0
  7 15  1  0  0  0
 15 16  1  0  0  0
 16 17  2  0  0  0
 17 18  1  0  0  0
 18 19  2  0  0  0
 19 20  1  0  0  0
 20 21  2  0  0  0
 21 22  1  0  0  0
 22 23  2  0  0  0
 23 24  1  0  0  0
 24 25  2  0  0  0
  6  1  1  0  0  0
 25 16  1  0  0  0
 25 20  1  0  0  0
M  END
> <minimizedAffinity>
-6.95087

> <CNNscore>
0.5573458672

> <CNNaffinity>
5.6610288620

> <CNN_VS>
3.1551511288

> <CNNaffinity_variance>
0.0530697890

$$$$



 25 27  0  0  0  0  0  0  0  0999 V2000
   -9.4987   -3.1509  -23.9280 C   0  0  0  0  0  0  0  0  0  0  0  0
  -10.9563   -2.8077  -23.8407 C   0  0  0  0  0  0  0  0  0  0  0  0
  -11.3803   -1.4568  -23.3451 C   0  0  0  0  0  0  0  0  0  0  0  0
  -10.3468   -0.4493  -22.9369 C   0  0  0  0  0  0  0  0  0  0  0  0
   -8.8892   -0.7926  -23.0242 C   0  0  0  0  0  0  0  0  0  0  0  0
   -8.4651   -2.1433  -23.5197 N   0  0  0  0  0  0  0  0  0  0  0  0
   -7.0076   -2.4866  -23.6070 C   0  0  0  0  0  0  0  0  0  0  0  0
   -6.5835   -3.8374  -24.1026 O   0  0  0  0  0  0  0  0  0  0  0  0
  -12.8379   -1.1136  -23.2578 C   0  0  0  0  0  0  0  0  0  0  0  0
  -14.2955   -0.7703  -23.1705 F   0  0  0  0  0  0  0  0  0  0  0  0
  -12.6063    0.0899  -24.1226 F   0  0  0  0  0  0  0  0  0  0  0  0
  -13.0695   -2.3171  -22.3930 F   0  0  0  0  0  0  0  0  0  0  0  0
   -9.7857   -5.1319  -25.5842 C   0  0  0  0  0  0  0  0  0  0  0  0
   -9.0747   -4.5017  -24.4235 C   0  0  0  0  0  0  0  0  0  0  0  0
   -5.9740   -1.4791  -23.1988 C   0  0  0  0  0  0  0  0  0  0  0  0
   -5.7249   -1.2071  -21.7449 C   0  0  0  0  0  0  0  0  0  0  0  0
   -6.3500   -2.0833  -20.7001 C   0  0  0  0  0  0  0  0  0  0  0  0
   -6.1009   -1.8113  -19.2462 N   0  0  0  0  0  0  0  0  0  0  0  0
   -5.2267   -0.6632  -18.8370 C   0  0  0  0  0  0  0  0  0  0  0  0
   -4.6015    0.2130  -19.8817 C   0  0  0  0  0  0  0  0  0  0  0  0
   -3.7273    1.3612  -19.4725 C   0  0  0  0  0  0  0  0  0  0  0  0
   -3.1022    2.2373  -20.5172 C   0  0  0  0  0  0  0  0  0  0  0  0
   -3.3513    1.9654  -21.9712 C   0  0  0  0  0  0  0  0  0  0  0  0
   -4.2255    0.8172  -22.3804 C   0  0  0  0  0  0  0  0  0  0  0  0
   -4.8506   -0.0589  -21.3357 C   0  0  0  0  0  0  0  0  0  0  0  0
 13 14  1  0  0  0
  1 14  1  0  0  0
  1  2  1  0  0  0
  2  3  1  0  0  0
  3  9  1  0  0  0
  9 10  1  0  0  0
  9 11  1  0  0  0
  9 12  1  0  0  0
  3  4  1  0  0  0
  4  5  1  0  0  0
  5  6  1  0  0  0
  6  7  1  0  0  0
  7  8  2  0  0  0
  7 15  1  0  0  0
 15 16  1  0  0  0
 16 17  2  0  0  0
 17 18  1  0  0  0
 18 19  2  0  0  0
 19 20  1  0  0  0
 20 21  2  0  0  0
 21 22  1  0  0  0
 22 23  2  0  0  0
 23 24  1  0  0  0
 24 25  2  0  0  0
  6  1  1  0  0  0
 25 16  1  0  0  0
 25 20  1  0  0  0
M  END
> <minimizedAffinity>
-6.57660

> <CNNscore>
0.5566505194

> <CNNaffinity>
5.6237058640

> <CNN_VS>
3.1304388046

> <CNNaffinity_variance>
0.4059577882

$$$$



 25 27  0  0  0  0  0  0  0  0999 V2000
   -9.5898    0.3097  -24.0294 C   0  0  0  0  0  0  0  0  0  0  0  0
  -11.0559    0.0075  -23.9337 C   0  0  0  0  0  0  0  0  0  0  0  0
  -11.5358   -1.1084  -23.0536 C   0  0  0  0  0  0  0  0  0  0  0  0
  -10.5496   -1.9221  -22.2692 C   0  0  0  0  0  0  0  0  0  0  0  0
   -9.0835   -1.6199  -22.3649 C   0  0  0  0  0  0  0  0  0  0  0  0
   -8.6035   -0.5040  -23.2449 N   0  0  0  0  0  0  0  0  0  0  0  0
   -7.1374   -0.2018  -23.3405 C   0  0  0  0  0  0  0  0  0  0  0  0
   -6.6575    0.9141  -24.2206 O   0  0  0  0  0  0  0  0  0  0  0  0
  -13.0019   -1.4107  -22.9580 C   0  0  0  0  0  0  0  0  0  0  0  0
  -14.4680   -1.7129  -22.8623 F   0  0  0  0  0  0  0  0  0  0  0  0
  -13.3168   -0.0749  -23.5634 F   0  0  0  0  0  0  0  0  0  0  0  0
  -12.6871   -2.7465  -22.3526 F   0  0  0  0  0  0  0  0  0  0  0  0
   -9.8229    2.7452  -24.9032 C   0  0  0  0  0  0  0  0  0  0  0  0
   -9.1099    1.4255  -24.9094 C   0  0  0  0  0  0  0  0  0  0  0  0
   -6.1512   -1.0155  -22.5562 C   0  0  0  0  0  0  0  0  0  0  0  0
   -5.7188   -0.5607  -21.1937 C   0  0  0  0  0  0  0  0  0  0  0  0
   -6.5001   -0.9744  -19.9820 C   0  0  0  0  0  0  0  0  0  0  0  0
   -6.0677   -0.5195  -18.6195 N   0  0  0  0  0  0  0  0  0  0  0  0
   -4.8541    0.3490  -18.4689 C   0  0  0  0  0  0  0  0  0  0  0  0
   -4.0728    0.7627  -19.6807 C   0  0  0  0  0  0  0  0  0  0  0  0
   -2.8592    1.6313  -19.5300 C   0  0  0  0  0  0  0  0  0  0  0  0
   -2.0779    2.0450  -20.7418 C   0  0  0  0  0  0  0  0  0  0  0  0
   -2.5103    1.5902  -22.1042 C   0  0  0  0  0  0  0  0  0  0  0  0
   -3.7239    0.7216  -22.2549 C   0  0  0  0  0  0  0  0  0  0  0  0
   -4.5052    0.3079  -21.0431 C   0  0  0  0  0  0  0  0  0  0  0  0
 13 14  1  0  0  0
  1 14  1  0  0  0
  1  2  1  0  0  0
  2  3  1  0  0  0
  3  9  1  0  0  0
  9 10  1  0  0  0
  9 11  1  0  0  0
  9 12  1  0  0  0
  3  4  1  0  0  0
  4  5  1  0  0  0
  5  6  1  0  0  0
  6  7  1  0  0  0
  7  8  2  0  0  0
  7 15  1  0  0  0
 15 16  1  0  0  0
 16 17  2  0  0  0
 17 18  1  0  0  0
 18 19  2  0  0  0
 19 20  1  0  0  0
 20 21  2  0  0  0
 21 22  1  0  0  0
 22 23  2  0  0  0
 23 24  1  0  0  0
 24 25  2  0  0  0
  6  1  1  0  0  0
 25 16  1  0  0  0
 25 20  1  0  0  0
M  END
> <minimizedAffinity>
-6.53897

> <CNNscore>
0.4978681505

> <CNNaffinity>
5.5352272987

> <CNN_VS>
2.7558133602

> <CNNaffinity_variance>
0.1986358464

$$$$



 25 27  0  0  0  0  0  0  0  0999 V2000
  -12.1215   -0.5569  -23.2201 C   0  0  0  0  0  0  0  0  0  0  0  0
  -12.9870    0.6682  -23.2278 C   0  0  0  0  0  0  0  0  0  0  0  0
  -12.3588    2.0300  -23.2566 C   0  0  0  0  0  0  0  0  0  0  0  0
  -10.8652    2.1668  -23.2777 C   0  0  0  0  0  0  0  0  0  0  0  0
   -9.9997    0.9417  -23.2700 C   0  0  0  0  0  0  0  0  0  0  0  0
  -10.6278   -0.4202  -23.2412 N   0  0  0  0  0  0  0  0  0  0  0  0
   -9.7623   -1.6453  -23.2336 C   0  0  0  0  0  0  0  0  0  0  0  0
  -10.3905   -3.0072  -23.2048 O   0  0  0  0  0  0  0  0  0  0  0  0
  -13.2243    3.2551  -23.2642 C   0  0  0  0  0  0  0  0  0  0  0  0
  -14.0898    4.4803  -23.2719 F   0  0  0  0  0  0  0  0  0  0  0  0
  -13.1631    3.2890  -24.7626 F   0  0  0  0  0  0  0  0  0  0  0  0
  -13.2855    3.2213  -21.7659 F   0  0  0  0  0  0  0  0  0  0  0  0
  -13.5121   -2.3675  -21.9802 C   0  0  0  0  0  0  0  0  0  0  0  0
  -12.7496   -1.9188  -23.1914 C   0  0  0  0  0  0  0  0  0  0  0  0
   -8.2688   -1.5085  -23.2546 C   0  0  0  0  0  0  0  0  0  0  0  0
   -7.5305   -1.1515  -21.9987 C   0  0  0  0  0  0  0  0  0  0  0  0
   -8.1587   -1.4075  -20.6609 C   0  0  0  0  0  0  0  0  0  0  0  0
   -7.4204   -1.0505  -19.4049 N   0  0  0  0  0  0  0  0  0  0  0  0
   -6.0539   -0.4374  -19.4867 C   0  0  0  0  0  0  0  0  0  0  0  0
   -5.4256   -0.1813  -20.8246 C   0  0  0  0  0  0  0  0  0  0  0  0
   -4.0592    0.4318  -20.9064 C   0  0  0  0  0  0  0  0  0  0  0  0
   -3.4309    0.6879  -22.2442 C   0  0  0  0  0  0  0  0  0  0  0  0
   -4.1692    0.3308  -23.5001 C   0  0  0  0  0  0  0  0  0  0  0  0
   -5.5357   -0.2823  -23.4183 C   0  0  0  0  0  0  0  0  0  0  0  0
   -6.1639   -0.5383  -22.0805 C   0  0  0  0  0  0  0  0  0  0  0  0
 13 14  1  0  0  0
  1 14  1  0  0  0
  1  2  1  0  0  0
  2  3  1  0  0  0
  3  9  1  0  0  0
  9 10  1  0  0  0
  9 11  1  0  0  0
  9 12  1  0  0  0
  3  4  1  0  0  0
  4  5  1  0  0  0
  5  6  1  0  0  0
  6  7  1  0  0  0
  7  8  2  0  0  0
  7 15  1  0  0  0
 15 16  1  0  0  0
 16 17  2  0  0  0
 17 18  1  0  0  0
 18 19  2  0  0  0
 19 20  1  0  0  0
 20 21  2  0  0  0
 21 22  1  0  0  0
 22 23  2  0  0  0
 23 24  1  0  0  0
 24 25  2  0  0  0
  6  1  1  0  0  0
 25 16  1  0  0  0
 25 20  1  0  0  0
M  END
> <minimizedAffinity>
-6.70674

> <CNNscore>
0.4747382402

> <CNNaffinity>
5.7214603424

> <CNN_VS>
2.7161960602

> <CNNaffinity_variance>
0.1430032700

$$$$



 25 27  0  0  0  0  0  0  0  0999 V2000
   -7.1880   -5.3325  -23.1142 C   0  0  0  0  0  0  0  0  0  0  0  0
   -8.0536   -6.0240  -24.1254 C   0  0  0  0  0  0  0  0  0  0  0  0
   -8.9130   -5.2179  -25.0536 C   0  0  0  0  0  0  0  0  0  0  0  0
   -8.9069   -3.7202  -24.9705 C   0  0  0  0  0  0  0  0  0  0  0  0
   -8.0413   -3.0286  -23.9593 C   0  0  0  0  0  0  0  0  0  0  0  0
   -7.1819   -3.8347  -23.0312 N   0  0  0  0  0  0  0  0  0  0  0  0
   -6.3163   -3.1432  -22.0200 C   0  0  0  0  0  0  0  0  0  0  0  0
   -5.4568   -3.9494  -21.0918 O   0  0  0  0  0  0  0  0  0  0  0  0
   -9.7786   -5.9094  -26.0648 C   0  0  0  0  0  0  0  0  0  0  0  0
  -10.6442   -6.6010  -27.0759 F   0  0  0  0  0  0  0  0  0  0  0  0
   -8.6173   -6.7667  -26.4725 F   0  0  0  0  0  0  0  0  0  0  0  0
  -10.9400   -5.0521  -25.6570 F   0  0  0  0  0  0  0  0  0  0  0  0
   -6.0240   -7.5730  -22.5018 C   0  0  0  0  0  0  0  0  0  0  0  0
   -6.3285   -6.1386  -22.1861 C   0  0  0  0  0  0  0  0  0  0  0  0
   -6.3101   -1.6455  -21.9370 C   0  0  0  0  0  0  0  0  0  0  0  0
   -5.1617   -0.8674  -22.5075 C   0  0  0  0  0  0  0  0  0  0  0  0
   -4.8329   -0.9770  -23.9669 C   0  0  0  0  0  0  0  0  0  0  0  0
   -3.6844   -0.1989  -24.5375 N   0  0  0  0  0  0  0  0  0  0  0  0
   -2.8647    0.6888  -23.6487 C   0  0  0  0  0  0  0  0  0  0  0  0
   -3.1935    0.7984  -22.1892 C   0  0  0  0  0  0  0  0  0  0  0  0
   -2.3738    1.6861  -21.3004 C   0  0  0  0  0  0  0  0  0  0  0  0
   -2.7026    1.7957  -19.8410 C   0  0  0  0  0  0  0  0  0  0  0  0
   -3.8511    1.0176  -19.2705 C   0  0  0  0  0  0  0  0  0  0  0  0
   -4.6707    0.1299  -20.1593 C   0  0  0  0  0  0  0  0  0  0  0  0
   -4.3420    0.0203  -21.6186 C   0  0  0  0  0  0  0  0  0  0  0  0
 13 14  1  0  0  0
  1 14  1  0  0  0
  1  2  1  0  0  0
  2  3  1  0  0  0
  3  9  1  0  0  0
  9 10  1  0  0  0
  9 11  1  0  0  0
  9 12  1  0  0  0
  3  4  1  0  0  0
  4  5  1  0  0  0
  5  6  1  0  0  0
  6  7  1  0  0  0
  7  8  2  0  0  0
  7 15  1  0  0  0
 15 16  1  0  0  0
 16 17  2  0  0  0
 17 18  1  0  0  0
 18 19  2  0  0  0
 19 20  1  0  0  0
 20 21  2  0  0  0
 21 22  1  0  0  0
 22 23  2  0  0  0
 23 24  1  0  0  0
 24 25  2  0  0  0
  6  1  1  0  0  0
 25 16  1  0  0  0
 25 20  1  0  0  0
M  END
> <minimizedAffinity>
-6.66101

> <CNNscore>
0.4679965377

> <CNNaffinity>
5.2825331688

> <CNN_VS>
2.4722073078

> <CNNaffinity_variance>
0.2264943570

$$$$



 25 27  0  0  0  0  0  0  0  0999 V2000
   -8.7639   -2.6587  -22.8020 C   0  0  0  0  0  0  0  0  0  0  0  0
   -9.1273   -3.7390  -23.7772 C   0  0  0  0  0  0  0  0  0  0  0  0
   -8.1614   -4.8517  -24.0582 C   0  0  0  0  0  0  0  0  0  0  0  0
   -6.8321   -4.8841  -23.3640 C   0  0  0  0  0  0  0  0  0  0  0  0
   -6.4686   -3.8038  -22.3889 C   0  0  0  0  0  0  0  0  0  0  0  0
   -7.4345   -2.6912  -22.1079 N   0  0  0  0  0  0  0  0  0  0  0  0
   -7.0710   -1.6109  -21.1328 C   0  0  0  0  0  0  0  0  0  0  0  0
   -8.0370   -0.4981  -20.8518 O   0  0  0  0  0  0  0  0  0  0  0  0
   -8.5248   -5.9320  -25.0333 C   0  0  0  0  0  0  0  0  0  0  0  0
   -8.8883   -7.0123  -26.0084 F   0  0  0  0  0  0  0  0  0  0  0  0
   -8.1089   -6.9723  -24.0359 F   0  0  0  0  0  0  0  0  0  0  0  0
   -8.9408   -4.8918  -26.0307 F   0  0  0  0  0  0  0  0  0  0  0  0
  -11.1580   -1.6629  -22.9642 C   0  0  0  0  0  0  0  0  0  0  0  0
   -9.7297   -1.5461  -22.5210 C   0  0  0  0  0  0  0  0  0  0  0  0
   -5.7417   -1.6432  -20.4387 C   0  0  0  0  0  0  0  0  0  0  0  0
   -4.8819   -0.4146  -20.4073 C   0  0  0  0  0  0  0  0  0  0  0  0
   -4.6499    0.3056  -19.1121 C   0  0  0  0  0  0  0  0  0  0  0  0
   -3.7900    1.5343  -19.0807 N   0  0  0  0  0  0  0  0  0  0  0  0
   -3.1622    2.0428  -20.3445 C   0  0  0  0  0  0  0  0  0  0  0  0
   -3.3942    1.3227  -21.6397 C   0  0  0  0  0  0  0  0  0  0  0  0
   -2.7664    1.8312  -22.9035 C   0  0  0  0  0  0  0  0  0  0  0  0
   -2.9984    1.1111  -24.1987 C   0  0  0  0  0  0  0  0  0  0  0  0
   -3.8582   -0.1176  -24.2301 C   0  0  0  0  0  0  0  0  0  0  0  0
   -4.4860   -0.6262  -22.9663 C   0  0  0  0  0  0  0  0  0  0  0  0
   -4.2540    0.0940  -21.6711 C   0  0  0  0  0  0  0  0  0  0  0  0
 13 14  1  0  0  0
  1 14  1  0  0  0
  1  2  1  0  0  0
  2  3  1  0  0  0
  3  9  1  0  0  0
  9 10  1  0  0  0
  9 11  1  0  0  0
  9 12  1  0  0  0
  3  4  1  0  0  0
  4  5  1  0  0  0
  5  6  1  0  0  0
  6  7  1  0  0  0
  7  8  2  0  0  0
  7 15  1  0  0  0
 15 16  1  0  0  0
 16 17  2  0  0  0
 17 18  1  0  0  0
 18 19  2  0  0  0
 19 20  1  0  0  0
 20 21  2  0  0  0
 21 22  1  0  0  0
 22 23  2  0  0  0
 23 24  1  0  0  0
 24 25  2  0  0  0
  6  1  1  0  0  0
 25 16  1  0  0  0
 25 20  1  0  0  0
M  END
> <minimizedAffinity>
-6.53682

> <CNNscore>
0.4268369377

> <CNNaffinity>
5.3077602386

> <CNN_VS>
2.2655482292

> <CNNaffinity_variance>
0.2177575827

$$$$
