


 24 27  0  0  0  0  0  0  0  0999 V2000
   10.7267   -1.1374   23.5924 C   0  0  0  0  0  0  0  0  0  0  0  0
   11.5575   -1.8278   24.6331 C   0  0  0  0  0  0  0  0  0  0  0  0
   12.9488   -1.5780   25.1349 C   0  0  0  0  0  0  0  0  0  0  0  0
   13.2505   -2.5983   26.1921 C   0  0  0  0  0  0  0  0  0  0  0  0
   12.0456   -3.4788   26.3439 S   0  0  0  0  0  0  0  0  0  0  0  0
   10.9992   -3.0026   25.3804 C   0  0  0  0  0  0  0  0  0  0  0  0
    9.6103   -3.4869   25.0868 C   0  0  0  0  0  0  0  0  0  0  0  0
    8.7795   -2.7965   24.0461 C   0  0  0  0  0  0  0  0  0  0  0  0
    9.3377   -1.6218   23.2989 N   0  0  0  0  0  0  0  0  0  0  0  0
    8.5069   -0.9313   22.2582 C   0  0  0  0  0  0  0  0  0  0  0  0
    9.0652    0.2435   21.5109 O   0  0  0  0  0  0  0  0  0  0  0  0
   11.5297    1.3332   23.5599 C   0  0  0  0  0  0  0  0  0  0  0  0
   11.2849    0.0373   22.8452 C   0  0  0  0  0  0  0  0  0  0  0  0
    7.1180   -1.4156   21.9646 C   0  0  0  0  0  0  0  0  0  0  0  0
    6.2079   -0.6009   21.0941 C   0  0  0  0  0  0  0  0  0  0  0  0
    6.4371   -0.5470   19.6127 C   0  0  0  0  0  0  0  0  0  0  0  0
    5.5270    0.2678   18.7421 N   0  0  0  0  0  0  0  0  0  0  0  0
    4.3877    1.0286   19.3529 C   0  0  0  0  0  0  0  0  0  0  0  0
    4.1585    0.9748   20.8343 C   0  0  0  0  0  0  0  0  0  0  0  0
    3.0192    1.7356   21.4451 C   0  0  0  0  0  0  0  0  0  0  0  0
    2.7900    1.6818   22.9265 C   0  0  0  0  0  0  0  0  0  0  0  0
    3.7001    0.8670   23.7971 C   0  0  0  0  0  0  0  0  0  0  0  0
    4.8394    0.1061   23.1863 C   0  0  0  0  0  0  0  0  0  0  0  0
    5.0686    0.1600   21.7049 C   0  0  0  0  0  0  0  0  0  0  0  0
 12 13  1  0  0  0
  1 13  1  0  0  0
  1  2  1  0  0  0
  2  3  1  0  0  0
  3  4  2  0  0  0
  4  5  1  0  0  0
  5  6  1  0  0  0
  6  7  1  0  0  0
  7  8  1  0  0  0
  8  9  1  0  0  0
  9 10  1  0  0  0
 10 11  2  0  0  0
 10 14  1  0  0  0
 14 15  1  0  0  0
 15 16  2  0  0  0
 16 17  1  0  0  0
 17 18  2  0  0  0
 18 19  1  0  0  0
 19 20  2  0  0  0
 20 21  1  0  0  0
 21 22  2  0  0  0
 22 23  1  0  0  0
 23 24  2  0  0  0
  9  1  1  0  0  0
 24 15  1  0  0  0
  6  2  2  0  0  0
 24 19  1  0  0  0
M  END
> <minimizedAffinity>
-6.98149

> <CNNscore>
0.7269415855

> <CNNaffinity>
5.8928518295

> <CNN_VS>
4.2837591171

> <CNNaffinity_variance>
0.0499338023

$$$$



 24 27  0  0  0  0  0  0  0  0999 V2000
    9.5731   -2.1101   23.9003 C   0  0  0  0  0  0  0  0  0  0  0  0
   10.8334   -2.2579   24.7003 C   0  0  0  0  0  0  0  0  0  0  0  0
   11.3302   -3.3526   25.5974 C   0  0  0  0  0  0  0  0  0  0  0  0
   12.6711   -2.9426   26.1301 C   0  0  0  0  0  0  0  0  0  0  0  0
   13.0031   -1.5945   25.5621 S   0  0  0  0  0  0  0  0  0  0  0  0
   11.8673   -1.1713   24.6784 C   0  0  0  0  0  0  0  0  0  0  0  0
   11.6410    0.0629   23.8567 C   0  0  0  0  0  0  0  0  0  0  0  0
   10.3807    0.2107   23.0568 C   0  0  0  0  0  0  0  0  0  0  0  0
    9.3468   -0.8758   23.0786 N   0  0  0  0  0  0  0  0  0  0  0  0
    8.0865   -0.7280   22.2786 C   0  0  0  0  0  0  0  0  0  0  0  0
    7.0526   -1.8146   22.3005 O   0  0  0  0  0  0  0  0  0  0  0  0
    8.4761   -4.1487   25.0795 C   0  0  0  0  0  0  0  0  0  0  0  0
    8.5392   -3.1966   23.9221 C   0  0  0  0  0  0  0  0  0  0  0  0
    7.8602    0.5063   21.4569 C   0  0  0  0  0  0  0  0  0  0  0  0
    6.9018    0.4741   20.3035 C   0  0  0  0  0  0  0  0  0  0  0  0
    7.1365   -0.4671   19.1594 C   0  0  0  0  0  0  0  0  0  0  0  0
    6.1780   -0.4994   18.0060 N   0  0  0  0  0  0  0  0  0  0  0  0
    4.9849    0.4097   17.9966 C   0  0  0  0  0  0  0  0  0  0  0  0
    4.7502    1.3509   19.1407 C   0  0  0  0  0  0  0  0  0  0  0  0
    3.5571    2.2599   19.1314 C   0  0  0  0  0  0  0  0  0  0  0  0
    3.3224    3.2012   20.2755 C   0  0  0  0  0  0  0  0  0  0  0  0
    4.2808    3.2334   21.4289 C   0  0  0  0  0  0  0  0  0  0  0  0
    5.4739    2.3244   21.4382 C   0  0  0  0  0  0  0  0  0  0  0  0
    5.7086    1.3831   20.2942 C   0  0  0  0  0  0  0  0  0  0  0  0
 12 13  1  0  0  0
  1 13  1  0  0  0
  1  2  1  0  0  0
  2  3  1  0  0  0
  3  4  2  0  0  0
  4  5  1  0  0  0
  5  6  1  0  0  0
  6  7  1  0  0  0
  7  8  1  0  0  0
  8  9  1  0  0  0
  9 10  1  0  0  0
 10 11  2  0  0  0
 10 14  1  0  0  0
 14 15  1  0  0  0
 15 16  2  0  0  0
 16 17  1  0  0  0
 17 18  2  0  0  0
 18 19  1  0  0  0
 19 20  2  0  0  0
 20 21  1  0  0  0
 21 22  2  0  0  0
 22 23  1  0  0  0
 23 24  2  0  0  0
  9  1  1  0  0  0
 24 15  1  0  0  0
  6  2  2  0  0  0
 24 19  1  0  0  0
M  END
> <minimizedAffinity>
-7.79940

> <CNNscore>
0.6520057321

> <CNNaffinity>
5.8454937935

> <CNN_VS>
3.8112955093

> <CNNaffinity_variance>
0.0942593068

$$$$



 24 27  0  0  0  0  0  0  0  0999 V2000
   10.0257   -0.3075   23.4629 C   0  0  0  0  0  0  0  0  0  0  0  0
   10.8588   -1.1209   24.4086 C   0  0  0  0  0  0  0  0  0  0  0  0
   12.1601   -0.8369   25.0985 C   0  0  0  0  0  0  0  0  0  0  0  0
   12.5140   -2.0332   25.9313 C   0  0  0  0  0  0  0  0  0  0  0  0
   11.4314   -3.0566   25.7561 S   0  0  0  0  0  0  0  0  0  0  0  0
   10.4084   -2.4928   24.8150 C   0  0  0  0  0  0  0  0  0  0  0  0
    9.1250   -3.0512   24.2757 C   0  0  0  0  0  0  0  0  0  0  0  0
    8.2919   -2.2379   23.3299 C   0  0  0  0  0  0  0  0  0  0  0  0
    8.7423   -0.8661   22.9235 N   0  0  0  0  0  0  0  0  0  0  0  0
    7.9092   -0.0527   21.9777 C   0  0  0  0  0  0  0  0  0  0  0  0
    8.3596    1.3192   21.5713 O   0  0  0  0  0  0  0  0  0  0  0  0
   11.9341    1.3413   22.8390 C   0  0  0  0  0  0  0  0  0  0  0  0
   10.4761    1.0643   23.0564 C   0  0  0  0  0  0  0  0  0  0  0  0
    6.6258   -0.6112   21.4384 C   0  0  0  0  0  0  0  0  0  0  0  0
    6.0000   -0.0072   20.2163 C   0  0  0  0  0  0  0  0  0  0  0  0
    6.6375   -0.2024   18.8727 C   0  0  0  0  0  0  0  0  0  0  0  0
    6.0117    0.4016   17.6506 N   0  0  0  0  0  0  0  0  0  0  0  0
    4.7483    1.2009   17.7722 C   0  0  0  0  0  0  0  0  0  0  0  0
    4.1106    1.3962   19.1158 C   0  0  0  0  0  0  0  0  0  0  0  0
    2.8472    2.1955   19.2373 C   0  0  0  0  0  0  0  0  0  0  0  0
    2.2096    2.3908   20.5809 C   0  0  0  0  0  0  0  0  0  0  0  0
    2.8355    1.7868   21.8030 C   0  0  0  0  0  0  0  0  0  0  0  0
    4.0989    0.9875   21.6815 C   0  0  0  0  0  0  0  0  0  0  0  0
    4.7365    0.7922   20.3379 C   0  0  0  0  0  0  0  0  0  0  0  0
 12 13  1  0  0  0
  1 13  1  0  0  0
  1  2  1  0  0  0
  2  3  1  0  0  0
  3  4  2  0  0  0
  4  5  1  0  0  0
  5  6  1  0  0  0
  6  7  1  0  0  0
  7  8  1  0  0  0
  8  9  1  0  0  0
  9 10  1  0  0  0
 10 11  2  0  0  0
 10 14  1  0  0  0
 14 15  1  0  0  0
 15 16  2  0  0  0
 16 17  1  0  0  0
 17 18  2  0  0  0
 18 19  1  0  0  0
 19 20  2  0  0  0
 20 21  1  0  0  0
 21 22  2  0  0  0
 22 23  1  0  0  0
 23 24  2  0  0  0
  9  1  1  0  0  0
 24 15  1  0  0  0
  6  2  2  0  0  0
 24 19  1  0  0  0
M  END
> <minimizedAffinity>
-7.65792

> <CNNscore>
0.6425889730

> <CNNaffinity>
5.7807464600

> <CNN_VS>
3.7146439552

> <CNNaffinity_variance>
0.0574541278

$$$$



 24 27  0  0  0  0  0  0  0  0999 V2000
    9.2972   -0.1068   22.7185 C   0  0  0  0  0  0  0  0  0  0  0  0
   10.1593    1.1112   22.8705 C   0  0  0  0  0  0  0  0  0  0  0  0
   11.5870    1.2835   23.2973 C   0  0  0  0  0  0  0  0  0  0  0  0
   11.9089    2.7480   23.2582 C   0  0  0  0  0  0  0  0  0  0  0  0
   10.6803    3.4809   22.8073 S   0  0  0  0  0  0  0  0  0  0  0  0
    9.5989    2.4693   22.5677 C   0  0  0  0  0  0  0  0  0  0  0  0
    8.1764    2.6093   22.1129 C   0  0  0  0  0  0  0  0  0  0  0  0
    7.3143    1.3913   21.9609 C   0  0  0  0  0  0  0  0  0  0  0  0
    7.8747    0.0332   22.2637 N   0  0  0  0  0  0  0  0  0  0  0  0
    7.0125   -1.1848   22.1117 C   0  0  0  0  0  0  0  0  0  0  0  0
    7.5729   -2.5429   22.4145 O   0  0  0  0  0  0  0  0  0  0  0  0
   11.3249   -1.7255   22.8516 C   0  0  0  0  0  0  0  0  0  0  0  0
    9.8576   -1.4648   23.0213 C   0  0  0  0  0  0  0  0  0  0  0  0
    5.5900   -1.0448   21.6568 C   0  0  0  0  0  0  0  0  0  0  0  0
    5.2834   -0.3831   20.3461 C   0  0  0  0  0  0  0  0  0  0  0  0
    5.9538   -0.8582   19.0912 C   0  0  0  0  0  0  0  0  0  0  0  0
    5.6471   -0.1965   17.7804 N   0  0  0  0  0  0  0  0  0  0  0  0
    4.6700    0.9402   17.7245 C   0  0  0  0  0  0  0  0  0  0  0  0
    3.9996    1.4153   18.9794 C   0  0  0  0  0  0  0  0  0  0  0  0
    3.0225    2.5521   18.9236 C   0  0  0  0  0  0  0  0  0  0  0  0
    2.3522    3.0271   20.1785 C   0  0  0  0  0  0  0  0  0  0  0  0
    2.6588    2.3655   21.4893 C   0  0  0  0  0  0  0  0  0  0  0  0
    3.6359    1.2287   21.5451 C   0  0  0  0  0  0  0  0  0  0  0  0
    4.3063    0.7537   20.2902 C   0  0  0  0  0  0  0  0  0  0  0  0
 12 13  1  0  0  0
  1 13  1  0  0  0
  1  2  1  0  0  0
  2  3  1  0  0  0
  3  4  2  0  0  0
  4  5  1  0  0  0
  5  6  1  0  0  0
  6  7  1  0  0  0
  7  8  1  0  0  0
  8  9  1  0  0  0
  9 10  1  0  0  0
 10 11  2  0  0  0
 10 14  1  0  0  0
 14 15  1  0  0  0
 15 16  2  0  0  0
 16 17  1  0  0  0
 17 18  2  0  0  0
 18 19  1  0  0  0
 19 20  2  0  0  0
 20 21  1  0  0  0
 21 22  2  0  0  0
 22 23  1  0  0  0
 23 24  2  0  0  0
  9  1  1  0  0  0
 24 15  1  0  0  0
  6  2  2  0  0  0
 24 19  1  0  0  0
M  END
> <minimizedAffinity>
-7.09393

> <CNNscore>
0.5640330315

> <CNNaffinity>
5.7406849861

> <CNN_VS>
3.2379360199

> <CNNaffinity_variance>
0.2029702216

$$$$



 24 27  0  0  0  0  0  0  0  0999 V2000
   10.8004   -0.3452   24.0021 C   0  0  0  0  0  0  0  0  0  0  0  0
   11.4845   -1.3624   24.8665 C   0  0  0  0  0  0  0  0  0  0  0  0
   12.9104   -1.5076   25.3089 C   0  0  0  0  0  0  0  0  0  0  0  0
   13.0055   -2.7299   26.1731 C   0  0  0  0  0  0  0  0  0  0  0  0
   11.6383   -3.3402   26.2649 S   0  0  0  0  0  0  0  0  0  0  0  0
   10.6983   -2.4950   25.4574 C   0  0  0  0  0  0  0  0  0  0  0  0
    9.2280   -2.6104   25.1838 C   0  0  0  0  0  0  0  0  0  0  0  0
    8.5439   -1.5932   24.3193 C   0  0  0  0  0  0  0  0  0  0  0  0
    9.3300   -0.4607   23.7285 N   0  0  0  0  0  0  0  0  0  0  0  0
    8.6459    0.5565   22.8640 C   0  0  0  0  0  0  0  0  0  0  0  0
    9.4322    1.6891   22.2731 O   0  0  0  0  0  0  0  0  0  0  0  0
   12.8464    0.5073   22.6467 C   0  0  0  0  0  0  0  0  0  0  0  0
   11.5866    0.7873   23.4112 C   0  0  0  0  0  0  0  0  0  0  0  0
    7.1757    0.4411   22.5904 C   0  0  0  0  0  0  0  0  0  0  0  0
    6.6753    0.4192   21.1764 C   0  0  0  0  0  0  0  0  0  0  0  0
    7.3653   -0.4294   20.1498 C   0  0  0  0  0  0  0  0  0  0  0  0
    6.8649   -0.4513   18.7359 N   0  0  0  0  0  0  0  0  0  0  0  0
    5.6747    0.3752   18.3486 C   0  0  0  0  0  0  0  0  0  0  0  0
    4.9847    1.2239   19.3752 C   0  0  0  0  0  0  0  0  0  0  0  0
    3.7945    2.0505   18.9878 C   0  0  0  0  0  0  0  0  0  0  0  0
    3.1046    2.8990   20.0144 C   0  0  0  0  0  0  0  0  0  0  0  0
    3.6049    2.9210   21.4284 C   0  0  0  0  0  0  0  0  0  0  0  0
    4.7951    2.0944   21.8157 C   0  0  0  0  0  0  0  0  0  0  0  0
    5.4851    1.2458   20.7891 C   0  0  0  0  0  0  0  0  0  0  0  0
 12 13  1  0  0  0
  1 13  1  0  0  0
  1  2  1  0  0  0
  2  3  1  0  0  0
  3  4  2  0  0  0
  4  5  1  0  0  0
  5  6  1  0  0  0
  6  7  1  0  0  0
  7  8  1  0  0  0
  8  9  1  0  0  0
  9 10  1  0  0  0
 10 11  2  0  0  0
 10 14  1  0  0  0
 14 15  1  0  0  0
 15 16  2  0  0  0
 16 17  1  0  0  0
 17 18  2  0  0  0
 18 19  1  0  0  0
 19 20  2  0  0  0
 20 21  1  0  0  0
 21 22  2  0  0  0
 22 23  1  0  0  0
 23 24  2  0  0  0
  9  1  1  0  0  0
 24 15  1  0  0  0
  6  2  2  0  0  0
 24 19  1  0  0  0
M  END
> <minimizedAffinity>
-7.66207

> <CNNscore>
0.5465717912

> <CNNaffinity>
5.7812767029

> <CNN_VS>
3.1598827839

> <CNNaffinity_variance>
0.0613912828

$$$$



 24 27  0  0  0  0  0  0  0  0999 V2000
    6.0984   -4.9610   24.8483 C   0  0  0  0  0  0  0  0  0  0  0  0
    4.6626   -5.2556   25.1669 C   0  0  0  0  0  0  0  0  0  0  0  0
    3.6418   -6.1219   24.4906 C   0  0  0  0  0  0  0  0  0  0  0  0
    2.3629   -6.0248   25.2685 C   0  0  0  0  0  0  0  0  0  0  0  0
    2.5933   -5.0984   26.4255 S   0  0  0  0  0  0  0  0  0  0  0  0
    4.0146   -4.6230   26.3628 C   0  0  0  0  0  0  0  0  0  0  0  0
    4.8025   -3.6958   27.2400 C   0  0  0  0  0  0  0  0  0  0  0  0
    6.2383   -3.4012   26.9214 C   0  0  0  0  0  0  0  0  0  0  0  0
    6.8863   -4.0337   25.7256 N   0  0  0  0  0  0  0  0  0  0  0  0
    8.3222   -3.7391   25.4071 C   0  0  0  0  0  0  0  0  0  0  0  0
    8.9702   -4.3717   24.2112 O   0  0  0  0  0  0  0  0  0  0  0  0
    7.0466   -7.0631   23.6519 C   0  0  0  0  0  0  0  0  0  0  0  0
    6.7464   -5.5935   23.6525 C   0  0  0  0  0  0  0  0  0  0  0  0
    9.1101   -2.8120   26.2843 C   0  0  0  0  0  0  0  0  0  0  0  0
   10.5304   -2.4771   25.9372 C   0  0  0  0  0  0  0  0  0  0  0  0
   11.6541   -3.2876   26.5120 C   0  0  0  0  0  0  0  0  0  0  0  0
   13.0744   -2.9527   26.1648 N   0  0  0  0  0  0  0  0  0  0  0  0
   13.3711   -1.8074   25.2429 C   0  0  0  0  0  0  0  0  0  0  0  0
   12.2474   -0.9968   24.6680 C   0  0  0  0  0  0  0  0  0  0  0  0
   12.5441    0.1486   23.7460 C   0  0  0  0  0  0  0  0  0  0  0  0
   11.4204    0.9591   23.1712 C   0  0  0  0  0  0  0  0  0  0  0  0
   10.0001    0.6242   23.5184 C   0  0  0  0  0  0  0  0  0  0  0  0
    9.7034   -0.5211   24.4403 C   0  0  0  0  0  0  0  0  0  0  0  0
   10.8271   -1.3316   25.0151 C   0  0  0  0  0  0  0  0  0  0  0  0
 12 13  1  0  0  0
  1 13  1  0  0  0
  1  2  1  0  0  0
  2  3  1  0  0  0
  3  4  2  0  0  0
  4  5  1  0  0  0
  5  6  1  0  0  0
  6  7  1  0  0  0
  7  8  1  0  0  0
  8  9  1  0  0  0
  9 10  1  0  0  0
 10 11  2  0  0  0
 10 14  1  0  0  0
 14 15  1  0  0  0
 15 16  2  0  0  0
 16 17  1  0  0  0
 17 18  2  0  0  0
 18 19  1  0  0  0
 19 20  2  0  0  0
 20 21  1  0  0  0
 21 22  2  0  0  0
 22 23  1  0  0  0
 23 24  2  0  0  0
  9  1  1  0  0  0
 24 15  1  0  0  0
  6  2  2  0  0  0
 24 19  1  0  0  0
M  END
> <minimizedAffinity>
-6.99504

> <CNNscore>
0.5195029974

> <CNNaffinity>
5.8349566460

> <CNN_VS>
3.0312774181

> <CNNaffinity_variance>
0.1208907738

$$$$



 24 27  0  0  0  0  0  0  0  0999 V2000
   10.3975   -1.8471   23.8196 C   0  0  0  0  0  0  0  0  0  0  0  0
   11.5866   -2.0595   24.7090 C   0  0  0  0  0  0  0  0  0  0  0  0
   12.9034   -1.3485   24.8111 C   0  0  0  0  0  0  0  0  0  0  0  0
   13.7044   -2.0095   25.8934 C   0  0  0  0  0  0  0  0  0  0  0  0
   12.8826   -3.1291   26.4603 S   0  0  0  0  0  0  0  0  0  0  0  0
   11.5737   -3.1600   25.7283 C   0  0  0  0  0  0  0  0  0  0  0  0
   10.3719   -4.0480   25.8581 C   0  0  0  0  0  0  0  0  0  0  0  0
    9.1828   -3.8356   24.9687 C   0  0  0  0  0  0  0  0  0  0  0  0
    9.1956   -2.7352   23.9495 N   0  0  0  0  0  0  0  0  0  0  0  0
    8.0066   -2.5227   23.0601 C   0  0  0  0  0  0  0  0  0  0  0  0
    8.0194   -1.4222   22.0409 O   0  0  0  0  0  0  0  0  0  0  0  0
   10.4335    0.6861   23.2439 C   0  0  0  0  0  0  0  0  0  0  0  0
   10.4103   -0.7466   22.8004 C   0  0  0  0  0  0  0  0  0  0  0  0
    6.8047   -3.4107   23.1899 C   0  0  0  0  0  0  0  0  0  0  0  0
    5.8741   -3.2477   24.3550 C   0  0  0  0  0  0  0  0  0  0  0  0
    5.4874   -1.8750   24.8197 C   0  0  0  0  0  0  0  0  0  0  0  0
    4.5567   -1.7120   25.9847 N   0  0  0  0  0  0  0  0  0  0  0  0
    4.0128   -2.9217   26.6851 C   0  0  0  0  0  0  0  0  0  0  0  0
    4.3994   -4.2946   26.2204 C   0  0  0  0  0  0  0  0  0  0  0  0
    3.8555   -5.5044   26.9208 C   0  0  0  0  0  0  0  0  0  0  0  0
    4.2421   -6.8771   26.4561 C   0  0  0  0  0  0  0  0  0  0  0  0
    5.1728   -7.0401   25.2910 C   0  0  0  0  0  0  0  0  0  0  0  0
    5.7167   -5.8304   24.5907 C   0  0  0  0  0  0  0  0  0  0  0  0
    5.3301   -4.4576   25.0553 C   0  0  0  0  0  0  0  0  0  0  0  0
 12 13  1  0  0  0
  1 13  1  0  0  0
  1  2  1  0  0  0
  2  3  1  0  0  0
  3  4  2  0  0  0
  4  5  1  0  0  0
  5  6  1  0  0  0
  6  7  1  0  0  0
  7  8  1  0  0  0
  8  9  1  0  0  0
  9 10  1  0  0  0
 10 11  2  0  0  0
 10 14  1  0  0  0
 14 15  1  0  0  0
 15 16  2  0  0  0
 16 17  1  0  0  0
 17 18  2  0  0  0
 18 19  1  0  0  0
 19 20  2  0  0  0
 20 21  1  0  0  0
 21 22  2  0  0  0
 22 23  1  0  0  0
 23 24  2  0  0  0
  9  1  1  0  0  0
 24 15  1  0  0  0
  6  2  2  0  0  0
 24 19  1  0  0  0
M  END
> <minimizedAffinity>
-6.42518

> <CNNscore>
0.5179560781

> <CNNaffinity>
5.8393411636

> <CNN_VS>
3.0245223045

> <CNNaffinity_variance>
0.1839869618

$$$$



 24 27  0  0  0  0  0  0  0  0999 V2000
   10.8224    2.7349   22.9092 C   0  0  0  0  0  0  0  0  0  0  0  0
    9.5529    3.5166   23.0747 C   0  0  0  0  0  0  0  0  0  0  0  0
    9.2848    4.9902   23.1550 C   0  0  0  0  0  0  0  0  0  0  0  0
    7.8068    5.1839   23.3228 C   0  0  0  0  0  0  0  0  0  0  0  0
    7.1615    3.8300   23.3460 S   0  0  0  0  0  0  0  0  0  0  0  0
    8.2406    2.7995   23.1927 C   0  0  0  0  0  0  0  0  0  0  0  0
    8.1979    1.3009   23.1453 C   0  0  0  0  0  0  0  0  0  0  0  0
    9.4675    0.5193   22.9799 C   0  0  0  0  0  0  0  0  0  0  0  0
   10.7797    1.2362   22.8618 N   0  0  0  0  0  0  0  0  0  0  0  0
   12.0492    0.4546   22.6964 C   0  0  0  0  0  0  0  0  0  0  0  0
   13.3615    1.1717   22.5784 O   0  0  0  0  0  0  0  0  0  0  0  0
   12.3280    4.4918   21.7276 C   0  0  0  0  0  0  0  0  0  0  0  0
   12.1346    3.4519   22.7912 C   0  0  0  0  0  0  0  0  0  0  0  0
   12.0065   -1.0440   22.6490 C   0  0  0  0  0  0  0  0  0  0  0  0
   12.1460   -1.8387   23.9135 C   0  0  0  0  0  0  0  0  0  0  0  0
   13.4464   -1.8365   24.6611 C   0  0  0  0  0  0  0  0  0  0  0  0
   13.5858   -2.6312   25.9257 N   0  0  0  0  0  0  0  0  0  0  0  0
   12.4249   -3.4280   26.4426 C   0  0  0  0  0  0  0  0  0  0  0  0
   11.1244   -3.4301   25.6950 C   0  0  0  0  0  0  0  0  0  0  0  0
    9.9634   -4.2269   26.2120 C   0  0  0  0  0  0  0  0  0  0  0  0
    8.6631   -4.2291   25.4644 C   0  0  0  0  0  0  0  0  0  0  0  0
    8.5236   -3.4344   24.1999 C   0  0  0  0  0  0  0  0  0  0  0  0
    9.6845   -2.6376   23.6829 C   0  0  0  0  0  0  0  0  0  0  0  0
   10.9849   -2.6355   24.4305 C   0  0  0  0  0  0  0  0  0  0  0  0
 12 13  1  0  0  0
  1 13  1  0  0  0
  1  2  1  0  0  0
  2  3  1  0  0  0
  3  4  2  0  0  0
  4  5  1  0  0  0
  5  6  1  0  0  0
  6  7  1  0  0  0
  7  8  1  0  0  0
  8  9  1  0  0  0
  9 10  1  0  0  0
 10 11  2  0  0  0
 10 14  1  0  0  0
 14 15  1  0  0  0
 15 16  2  0  0  0
 16 17  1  0  0  0
 17 18  2  0  0  0
 18 19  1  0  0  0
 19 20  2  0  0  0
 20 21  1  0  0  0
 21 22  2  0  0  0
 22 23  1  0  0  0
 23 24  2  0  0  0
  9  1  1  0  0  0
 24 15  1  0  0  0
  6  2  2  0  0  0
 24 19  1  0  0  0
M  END
> <minimizedAffinity>
-7.15275

> <CNNscore>
0.5162526965

> <CNNaffinity>
5.8736734390

> <CNN_VS>
3.0322997570

> <CNNaffinity_variance>
0.1450586915

$$$$



 24 27  0  0  0  0  0  0  0  0999 V2000
   10.9680   -0.8064   24.0015 C   0  0  0  0  0  0  0  0  0  0  0  0
   11.6795   -1.6980   24.9756 C   0  0  0  0  0  0  0  0  0  0  0  0
   12.9941   -1.5624   25.6851 C   0  0  0  0  0  0  0  0  0  0  0  0
   13.1851   -2.7777   26.5434 C   0  0  0  0  0  0  0  0  0  0  0  0
   11.9885   -3.6644   26.3643 S   0  0  0  0  0  0  0  0  0  0  0  0
   11.0580   -2.9971   25.3953 C   0  0  0  0  0  0  0  0  0  0  0  0
    9.7251   -3.4045   24.8410 C   0  0  0  0  0  0  0  0  0  0  0  0
    9.0136   -2.5129   23.8669 C   0  0  0  0  0  0  0  0  0  0  0  0
    9.6351   -1.2139   23.4471 N   0  0  0  0  0  0  0  0  0  0  0  0
    8.9236   -0.3222   22.4731 C   0  0  0  0  0  0  0  0  0  0  0  0
    9.5451    0.9769   22.0533 O   0  0  0  0  0  0  0  0  0  0  0  0
   12.8478    0.4928   22.7653 C   0  0  0  0  0  0  0  0  0  0  0  0
   11.5895    0.4927   23.5817 C   0  0  0  0  0  0  0  0  0  0  0  0
    7.5907   -0.7296   21.9187 C   0  0  0  0  0  0  0  0  0  0  0  0
    6.4379    0.2292   21.9566 C   0  0  0  0  0  0  0  0  0  0  0  0
    5.9866    0.8083   23.2647 C   0  0  0  0  0  0  0  0  0  0  0  0
    4.8337    1.7671   23.3025 N   0  0  0  0  0  0  0  0  0  0  0  0
    4.1321    2.1470   22.0323 C   0  0  0  0  0  0  0  0  0  0  0  0
    4.5834    1.5680   20.7242 C   0  0  0  0  0  0  0  0  0  0  0  0
    3.8818    1.9478   19.4540 C   0  0  0  0  0  0  0  0  0  0  0  0
    4.3330    1.3688   18.1460 C   0  0  0  0  0  0  0  0  0  0  0  0
    5.4859    0.4099   18.1081 C   0  0  0  0  0  0  0  0  0  0  0  0
    6.1875    0.0301   19.3783 C   0  0  0  0  0  0  0  0  0  0  0  0
    5.7362    0.6091   20.6863 C   0  0  0  0  0  0  0  0  0  0  0  0
 12 13  1  0  0  0
  1 13  1  0  0  0
  1  2  1  0  0  0
  2  3  1  0  0  0
  3  4  2  0  0  0
  4  5  1  0  0  0
  5  6  1  0  0  0
  6  7  1  0  0  0
  7  8  1  0  0  0
  8  9  1  0  0  0
  9 10  1  0  0  0
 10 11  2  0  0  0
 10 14  1  0  0  0
 14 15  1  0  0  0
 15 16  2  0  0  0
 16 17  1  0  0  0
 17 18  2  0  0  0
 18 19  1  0  0  0
 19 20  2  0  0  0
 20 21  1  0  0  0
 21 22  2  0  0  0
 22 23  1  0  0  0
 23 24  2  0  0  0
  9  1  1  0  0  0
 24 15  1  0  0  0
  6  2  2  0  0  0
 24 19  1  0  0  0
M  END
> <minimizedAffinity>
-7.62382

> <CNNscore>
0.4951408207

> <CNNaffinity>
5.6869363785

> <CNN_VS>
2.8158342838

> <CNNaffinity_variance>
0.0955057442

$$$$
