


 20 22  0  0  0  0  0  0  0  0999 V2000
    8.8698   -2.8405   23.4841 C   0  0  0  0  0  0  0  0  0  0  0  0
   10.2147   -2.1811   23.4039 C   0  0  0  0  0  0  0  0  0  0  0  0
   10.5328   -1.2628   22.2613 C   0  0  0  0  0  0  0  0  0  0  0  0
   11.8777   -0.6034   22.1810 N   0  0  0  0  0  0  0  0  0  0  0  0
   12.9045   -0.8623   23.2433 C   0  0  0  0  0  0  0  0  0  0  0  0
   12.5864   -1.7807   24.3860 C   0  0  0  0  0  0  0  0  0  0  0  0
   13.6133   -2.0396   25.4483 C   0  0  0  0  0  0  0  0  0  0  0  0
   13.2952   -2.9579   26.5909 C   0  0  0  0  0  0  0  0  0  0  0  0
   11.9503   -3.6172   26.6711 C   0  0  0  0  0  0  0  0  0  0  0  0
   10.9235   -3.3583   25.6088 C   0  0  0  0  0  0  0  0  0  0  0  0
   11.2415   -2.4400   24.4663 C   0  0  0  0  0  0  0  0  0  0  0  0
    6.2988    2.8285   26.4000 C   0  0  0  0  0  0  0  0  0  0  0  0
    6.7291    1.4553   25.9769 C   0  0  0  0  0  0  0  0  0  0  0  0
    7.5789    1.2793   24.7535 C   0  0  0  0  0  0  0  0  0  0  0  0
    8.0092   -0.0940   24.3304 C   0  0  0  0  0  0  0  0  0  0  0  0
    7.5897   -1.2912   25.1307 N   0  0  0  0  0  0  0  0  0  0  0  0
    8.0200   -2.6645   24.7076 C   0  0  0  0  0  0  0  0  0  0  0  0
    7.6005   -3.8618   25.5080 O   0  0  0  0  0  0  0  0  0  0  0  0
    6.7399   -1.1153   26.3542 C   0  0  0  0  0  0  0  0  0  0  0  0
    6.3096    0.2580   26.7774 C   0  0  0  0  0  0  0  0  0  0  0  0
 12 13  1  0  0  0
 13 14  1  0  0  0
 14 15  1  0  0  0
 15 16  1  0  0  0
 16 17  1  0  0  0
 17 18  2  0  0  0
 17  1  1  0  0  0
  1  2  1  0  0  0
  2  3  2  0  0  0
  3  4  1  0  0  0
  4  5  2  0  0  0
  5  6  1  0  0  0
  6  7  2  0  0  0
  7  8  1  0  0  0
  8  9  2  0  0  0
  9 10  1  0  0  0
 10 11  2  0  0  0
 16 19  1  0  0  0
 19 20  1  0  0  0
 20 13  1  0  0  0
 11  2  1  0  0  0
 11  6  1  0  0  0
M  END
> <minimizedAffinity>
-6.34999

> <CNNscore>
0.7653161883

> <CNNaffinity>
5.3367128372

> <CNN_VS>
4.0842728615

> <CNNaffinity_variance>
0.0729622394

$$$$



 20 22  0  0  0  0  0  0  0  0999 V2000
    9.2223   -1.9083   22.1146 C   0  0  0  0  0  0  0  0  0  0  0  0
    9.4905   -2.6220   23.4063 C   0  0  0  0  0  0  0  0  0  0  0  0
    8.4776   -3.5811   23.9577 C   0  0  0  0  0  0  0  0  0  0  0  0
    8.7458   -4.2948   25.2494 N   0  0  0  0  0  0  0  0  0  0  0  0
   10.0270   -4.0495   25.9898 C   0  0  0  0  0  0  0  0  0  0  0  0
   11.0401   -3.0903   25.4385 C   0  0  0  0  0  0  0  0  0  0  0  0
   12.3213   -2.8450   26.1789 C   0  0  0  0  0  0  0  0  0  0  0  0
   13.3342   -1.8859   25.6276 C   0  0  0  0  0  0  0  0  0  0  0  0
   13.0660   -1.1721   24.3359 C   0  0  0  0  0  0  0  0  0  0  0  0
   11.7848   -1.4175   23.5954 C   0  0  0  0  0  0  0  0  0  0  0  0
   10.7718   -2.3766   24.1468 C   0  0  0  0  0  0  0  0  0  0  0  0
    6.5114    1.7128   27.2904 C   0  0  0  0  0  0  0  0  0  0  0  0
    6.9969    1.1295   25.9966 C   0  0  0  0  0  0  0  0  0  0  0  0
    7.7658   -0.1584   25.9962 C   0  0  0  0  0  0  0  0  0  0  0  0
    8.2513   -0.7417   24.7023 C   0  0  0  0  0  0  0  0  0  0  0  0
    7.9680   -0.0370   23.4088 N   0  0  0  0  0  0  0  0  0  0  0  0
    8.4535   -0.6203   22.1150 C   0  0  0  0  0  0  0  0  0  0  0  0
    8.1701    0.0845   20.8215 O   0  0  0  0  0  0  0  0  0  0  0  0
    7.1991    1.2510   23.4092 C   0  0  0  0  0  0  0  0  0  0  0  0
    6.7136    1.8343   24.7030 C   0  0  0  0  0  0  0  0  0  0  0  0
 12 13  1  0  0  0
 13 14  1  0  0  0
 14 15  1  0  0  0
 15 16  1  0  0  0
 16 17  1  0  0  0
 17 18  2  0  0  0
 17  1  1  0  0  0
  1  2  1  0  0  0
  2  3  2  0  0  0
  3  4  1  0  0  0
  4  5  2  0  0  0
  5  6  1  0  0  0
  6  7  2  0  0  0
  7  8  1  0  0  0
  8  9  2  0  0  0
  9 10  1  0  0  0
 10 11  2  0  0  0
 16 19  1  0  0  0
 19 20  1  0  0  0
 20 13  1  0  0  0
 11  2  1  0  0  0
 11  6  1  0  0  0
M  END
> <minimizedAffinity>
-6.38494

> <CNNscore>
0.7559016347

> <CNNaffinity>
5.4734339714

> <CNN_VS>
4.1373777390

> <CNNaffinity_variance>
0.0890673101

$$$$



 20 22  0  0  0  0  0  0  0  0999 V2000
    8.4236   -0.6522   24.7423 C   0  0  0  0  0  0  0  0  0  0  0  0
    9.8582   -0.4389   24.3596 C   0  0  0  0  0  0  0  0  0  0  0  0
   10.2157    0.6012   23.3397 C   0  0  0  0  0  0  0  0  0  0  0  0
   11.6503    0.8145   22.9570 N   0  0  0  0  0  0  0  0  0  0  0  0
   12.7274   -0.0124   23.5942 C   0  0  0  0  0  0  0  0  0  0  0  0
   12.3699   -1.0526   24.6142 C   0  0  0  0  0  0  0  0  0  0  0  0
   13.4470   -1.8795   25.2514 C   0  0  0  0  0  0  0  0  0  0  0  0
   13.0895   -2.9196   26.2713 C   0  0  0  0  0  0  0  0  0  0  0  0
   11.6549   -3.1329   26.6540 C   0  0  0  0  0  0  0  0  0  0  0  0
   10.5778   -2.3060   26.0168 C   0  0  0  0  0  0  0  0  0  0  0  0
   10.9353   -1.2659   24.9969 C   0  0  0  0  0  0  0  0  0  0  0  0
    6.7120   -7.1741   23.4060 C   0  0  0  0  0  0  0  0  0  0  0  0
    6.8991   -5.6883   23.4916 C   0  0  0  0  0  0  0  0  0  0  0  0
    7.8623   -5.1097   24.4853 C   0  0  0  0  0  0  0  0  0  0  0  0
    8.0494   -3.6239   24.5709 C   0  0  0  0  0  0  0  0  0  0  0  0
    7.2733   -2.7166   23.6629 N   0  0  0  0  0  0  0  0  0  0  0  0
    7.4604   -1.2308   23.7486 C   0  0  0  0  0  0  0  0  0  0  0  0
    6.6842   -0.3236   22.8406 O   0  0  0  0  0  0  0  0  0  0  0  0
    6.3100   -3.2952   22.6692 C   0  0  0  0  0  0  0  0  0  0  0  0
    6.1229   -4.7810   22.5836 C   0  0  0  0  0  0  0  0  0  0  0  0
 12 13  1  0  0  0
 13 14  1  0  0  0
 14 15  1  0  0  0
 15 16  1  0  0  0
 16 17  1  0  0  0
 17 18  2  0  0  0
 17  1  1  0  0  0
  1  2  1  0  0  0
  2  3  2  0  0  0
  3  4  1  0  0  0
  4  5  2  0  0  0
  5  6  1  0  0  0
  6  7  2  0  0  0
  7  8  1  0  0  0
  8  9  2  0  0  0
  9 10  1  0  0  0
 10 11  2  0  0  0
 16 19  1  0  0  0
 19 20  1  0  0  0
 20 13  1  0  0  0
 11  2  1  0  0  0
 11  6  1  0  0  0
M  END
> <minimizedAffinity>
-6.76529

> <CNNscore>
0.7093974948

> <CNNaffinity>
5.3939070702

> <CNN_VS>
3.8264241219

> <CNNaffinity_variance>
0.1384975612

$$$$



 20 22  0  0  0  0  0  0  0  0999 V2000
    9.1131   -2.0161   22.3631 C   0  0  0  0  0  0  0  0  0  0  0  0
   10.4671   -1.8782   22.9939 C   0  0  0  0  0  0  0  0  0  0  0  0
   11.5272   -1.0565   22.3224 C   0  0  0  0  0  0  0  0  0  0  0  0
   12.8811   -0.9186   22.9531 N   0  0  0  0  0  0  0  0  0  0  0  0
   13.1749   -1.6023   24.2555 C   0  0  0  0  0  0  0  0  0  0  0  0
   12.1148   -2.4241   24.9271 C   0  0  0  0  0  0  0  0  0  0  0  0
   12.4086   -3.1078   26.2294 C   0  0  0  0  0  0  0  0  0  0  0  0
   11.3485   -3.9295   26.9010 C   0  0  0  0  0  0  0  0  0  0  0  0
    9.9946   -4.0674   26.2702 C   0  0  0  0  0  0  0  0  0  0  0  0
    9.7008   -3.3836   24.9679 C   0  0  0  0  0  0  0  0  0  0  0  0
   10.7609   -2.5620   24.2963 C   0  0  0  0  0  0  0  0  0  0  0  0
    6.1441    2.8967   26.1446 C   0  0  0  0  0  0  0  0  0  0  0  0
    6.6948    1.9744   25.0976 C   0  0  0  0  0  0  0  0  0  0  0  0
    7.4610    0.7507   25.5041 C   0  0  0  0  0  0  0  0  0  0  0  0
    8.0117   -0.1716   24.4571 C   0  0  0  0  0  0  0  0  0  0  0  0
    7.7962    0.1299   23.0036 N   0  0  0  0  0  0  0  0  0  0  0  0
    8.3469   -0.7923   21.9567 C   0  0  0  0  0  0  0  0  0  0  0  0
    8.1314   -0.4907   20.5031 O   0  0  0  0  0  0  0  0  0  0  0  0
    7.0300    1.3538   22.5971 C   0  0  0  0  0  0  0  0  0  0  0  0
    6.4793    2.2760   23.6441 C   0  0  0  0  0  0  0  0  0  0  0  0
 12 13  1  0  0  0
 13 14  1  0  0  0
 14 15  1  0  0  0
 15 16  1  0  0  0
 16 17  1  0  0  0
 17 18  2  0  0  0
 17  1  1  0  0  0
  1  2  1  0  0  0
  2  3  2  0  0  0
  3  4  1  0  0  0
  4  5  2  0  0  0
  5  6  1  0  0  0
  6  7  2  0  0  0
  7  8  1  0  0  0
  8  9  2  0  0  0
  9 10  1  0  0  0
 10 11  2  0  0  0
 16 19  1  0  0  0
 19 20  1  0  0  0
 20 13  1  0  0  0
 11  2  1  0  0  0
 11  6  1  0  0  0
M  END
> <minimizedAffinity>
-6.37246

> <CNNscore>
0.6802658439

> <CNNaffinity>
5.3176689148

> <CNN_VS>
3.6174285412

> <CNNaffinity_variance>
0.0431426130

$$$$



 20 22  0  0  0  0  0  0  0  0999 V2000
    9.7248   -1.8726   22.3191 C   0  0  0  0  0  0  0  0  0  0  0  0
    9.7038   -2.6464   23.6039 C   0  0  0  0  0  0  0  0  0  0  0  0
    8.4612   -3.3768   24.0193 C   0  0  0  0  0  0  0  0  0  0  0  0
    8.4402   -4.1506   25.3041 N   0  0  0  0  0  0  0  0  0  0  0  0
    9.6617   -4.1940   26.1736 C   0  0  0  0  0  0  0  0  0  0  0  0
   10.9043   -3.4636   25.7582 C   0  0  0  0  0  0  0  0  0  0  0  0
   12.1258   -3.5070   26.6276 C   0  0  0  0  0  0  0  0  0  0  0  0
   13.3684   -2.7766   26.2123 C   0  0  0  0  0  0  0  0  0  0  0  0
   13.3894   -2.0028   24.9274 C   0  0  0  0  0  0  0  0  0  0  0  0
   12.1679   -1.9594   24.0580 C   0  0  0  0  0  0  0  0  0  0  0  0
   10.9254   -2.6898   24.4734 C   0  0  0  0  0  0  0  0  0  0  0  0
   11.7173    4.6640   23.0620 C   0  0  0  0  0  0  0  0  0  0  0  0
   11.0263    3.3501   22.8471 C   0  0  0  0  0  0  0  0  0  0  0  0
   11.7978    2.0691   22.9638 C   0  0  0  0  0  0  0  0  0  0  0  0
   11.1068    0.7552   22.7489 C   0  0  0  0  0  0  0  0  0  0  0  0
    9.6443    0.7223   22.4173 N   0  0  0  0  0  0  0  0  0  0  0  0
    8.9533   -0.5916   22.2024 C   0  0  0  0  0  0  0  0  0  0  0  0
    7.4907   -0.6244   21.8707 O   0  0  0  0  0  0  0  0  0  0  0  0
    8.8727    2.0034   22.3005 C   0  0  0  0  0  0  0  0  0  0  0  0
    9.5637    3.3173   22.5154 C   0  0  0  0  0  0  0  0  0  0  0  0
 12 13  1  0  0  0
 13 14  1  0  0  0
 14 15  1  0  0  0
 15 16  1  0  0  0
 16 17  1  0  0  0
 17 18  2  0  0  0
 17  1  1  0  0  0
  1  2  1  0  0  0
  2  3  2  0  0  0
  3  4  1  0  0  0
  4  5  2  0  0  0
  5  6  1  0  0  0
  6  7  2  0  0  0
  7  8  1  0  0  0
  8  9  2  0  0  0
  9 10  1  0  0  0
 10 11  2  0  0  0
 16 19  1  0  0  0
 19 20  1  0  0  0
 20 13  1  0  0  0
 11  2  1  0  0  0
 11  6  1  0  0  0
M  END
> <minimizedAffinity>
-7.04237

> <CNNscore>
0.6227763891

> <CNNaffinity>
5.2484598160

> <CNN_VS>
3.2686169147

> <CNNaffinity_variance>
0.1773230582

$$$$



 20 22  0  0  0  0  0  0  0  0999 V2000
    8.4859   -3.7960   25.3587 C   0  0  0  0  0  0  0  0  0  0  0  0
    9.3393   -3.0333   24.3891 C   0  0  0  0  0  0  0  0  0  0  0  0
    8.7734   -2.6052   23.0676 C   0  0  0  0  0  0  0  0  0  0  0  0
    9.6267   -1.8426   22.0979 N   0  0  0  0  0  0  0  0  0  0  0  0
   11.0459   -1.5080   22.4498 C   0  0  0  0  0  0  0  0  0  0  0  0
   11.6118   -1.9360   23.7714 C   0  0  0  0  0  0  0  0  0  0  0  0
   13.0310   -1.6014   24.1233 C   0  0  0  0  0  0  0  0  0  0  0  0
   13.5969   -2.0295   25.4449 C   0  0  0  0  0  0  0  0  0  0  0  0
   12.7436   -2.7922   26.4145 C   0  0  0  0  0  0  0  0  0  0  0  0
   11.3244   -3.1268   26.0626 C   0  0  0  0  0  0  0  0  0  0  0  0
   10.7585   -2.6987   24.7411 C   0  0  0  0  0  0  0  0  0  0  0  0
    1.7602   -4.8378   26.3224 C   0  0  0  0  0  0  0  0  0  0  0  0
    3.2152   -4.8497   25.9581 C   0  0  0  0  0  0  0  0  0  0  0  0
    4.1208   -3.7605   26.4515 C   0  0  0  0  0  0  0  0  0  0  0  0
    5.5759   -3.7723   26.0873 C   0  0  0  0  0  0  0  0  0  0  0  0
    6.1253   -4.8734   25.2295 N   0  0  0  0  0  0  0  0  0  0  0  0
    7.5804   -4.8852   24.8653 C   0  0  0  0  0  0  0  0  0  0  0  0
    8.1298   -5.9863   24.0075 O   0  0  0  0  0  0  0  0  0  0  0  0
    5.2197   -5.9626   24.7360 C   0  0  0  0  0  0  0  0  0  0  0  0
    3.7647   -5.9508   25.1003 C   0  0  0  0  0  0  0  0  0  0  0  0
 12 13  1  0  0  0
 13 14  1  0  0  0
 14 15  1  0  0  0
 15 16  1  0  0  0
 16 17  1  0  0  0
 17 18  2  0  0  0
 17  1  1  0  0  0
  1  2  1  0  0  0
  2  3  2  0  0  0
  3  4  1  0  0  0
  4  5  2  0  0  0
  5  6  1  0  0  0
  6  7  2  0  0  0
  7  8  1  0  0  0
  8  9  2  0  0  0
  9 10  1  0  0  0
 10 11  2  0  0  0
 16 19  1  0  0  0
 19 20  1  0  0  0
 20 13  1  0  0  0
 11  2  1  0  0  0
 11  6  1  0  0  0
M  END
> <minimizedAffinity>
-6.29924

> <CNNscore>
0.6208941936

> <CNNaffinity>
5.4584255219

> <CNN_VS>
3.3891046047

> <CNNaffinity_variance>
0.1758194119

$$$$



 20 22  0  0  0  0  0  0  0  0999 V2000
    9.1025   -2.7953   26.3354 C   0  0  0  0  0  0  0  0  0  0  0  0
   10.5377   -2.5343   25.9859 C   0  0  0  0  0  0  0  0  0  0  0  0
   11.6211   -3.3836   26.5816 C   0  0  0  0  0  0  0  0  0  0  0  0
   13.0563   -3.1227   26.2321 N   0  0  0  0  0  0  0  0  0  0  0  0
   13.4081   -2.0125   25.2869 C   0  0  0  0  0  0  0  0  0  0  0  0
   12.3247   -1.1631   24.6911 C   0  0  0  0  0  0  0  0  0  0  0  0
   12.6765   -0.0529   23.7458 C   0  0  0  0  0  0  0  0  0  0  0  0
   11.5932    0.7964   23.1501 C   0  0  0  0  0  0  0  0  0  0  0  0
   10.1580    0.5355   23.4996 C   0  0  0  0  0  0  0  0  0  0  0  0
    9.8062   -0.5747   24.4448 C   0  0  0  0  0  0  0  0  0  0  0  0
   10.8895   -1.4240   25.0406 C   0  0  0  0  0  0  0  0  0  0  0  0
    2.4179   -4.3856   26.5263 C   0  0  0  0  0  0  0  0  0  0  0  0
    3.8902   -4.2369   26.2808 C   0  0  0  0  0  0  0  0  0  0  0  0
    4.6857   -3.2413   27.0719 C   0  0  0  0  0  0  0  0  0  0  0  0
    6.1580   -3.0926   26.8264 C   0  0  0  0  0  0  0  0  0  0  0  0
    6.8347   -3.9395   25.7898 N   0  0  0  0  0  0  0  0  0  0  0  0
    8.3070   -3.7909   25.5443 C   0  0  0  0  0  0  0  0  0  0  0  0
    8.9838   -4.6379   24.5076 O   0  0  0  0  0  0  0  0  0  0  0  0
    6.0392   -4.9352   24.9986 C   0  0  0  0  0  0  0  0  0  0  0  0
    4.5669   -5.0839   25.2441 C   0  0  0  0  0  0  0  0  0  0  0  0
 12 13  1  0  0  0
 13 14  1  0  0  0
 14 15  1  0  0  0
 15 16  1  0  0  0
 16 17  1  0  0  0
 17 18  2  0  0  0
 17  1  1  0  0  0
  1  2  1  0  0  0
  2  3  2  0  0  0
  3  4  1  0  0  0
  4  5  2  0  0  0
  5  6  1  0  0  0
  6  7  2  0  0  0
  7  8  1  0  0  0
  8  9  2  0  0  0
  9 10  1  0  0  0
 10 11  2  0  0  0
 16 19  1  0  0  0
 19 20  1  0  0  0
 20 13  1  0  0  0
 11  2  1  0  0  0
 11  6  1  0  0  0
M  END
> <minimizedAffinity>
-6.26217

> <CNNscore>
0.6134457588

> <CNNaffinity>
5.3341674805

> <CNN_VS>
3.2722225189

> <CNNaffinity_variance>
0.1788314879

$$$$



 20 22  0  0  0  0  0  0  0  0999 V2000
    8.4829   -3.6262   24.2581 C   0  0  0  0  0  0  0  0  0  0  0  0
    9.8320   -3.4820   24.8976 C   0  0  0  0  0  0  0  0  0  0  0  0
   10.2440   -4.4144   25.9980 C   0  0  0  0  0  0  0  0  0  0  0  0
   11.5932   -4.2702   26.6375 N   0  0  0  0  0  0  0  0  0  0  0  0
   12.5304   -3.1936   26.1765 C   0  0  0  0  0  0  0  0  0  0  0  0
   12.1185   -2.2611   25.0761 C   0  0  0  0  0  0  0  0  0  0  0  0
   13.0557   -1.1845   24.6152 C   0  0  0  0  0  0  0  0  0  0  0  0
   12.6438   -0.2522   23.5148 C   0  0  0  0  0  0  0  0  0  0  0  0
   11.2946   -0.3964   22.8753 C   0  0  0  0  0  0  0  0  0  0  0  0
   10.3574   -1.4730   23.3362 C   0  0  0  0  0  0  0  0  0  0  0  0
   10.7693   -2.4053   24.4366 C   0  0  0  0  0  0  0  0  0  0  0  0
    2.6151   -6.9829   23.0122 C   0  0  0  0  0  0  0  0  0  0  0  0
    3.7778   -6.1938   23.5371 C   0  0  0  0  0  0  0  0  0  0  0  0
    4.9948   -5.9935   22.6835 C   0  0  0  0  0  0  0  0  0  0  0  0
    6.1575   -5.2044   23.2084 C   0  0  0  0  0  0  0  0  0  0  0  0
    6.1032   -4.6156   24.5868 N   0  0  0  0  0  0  0  0  0  0  0  0
    7.2658   -3.8265   25.1117 C   0  0  0  0  0  0  0  0  0  0  0  0
    7.2114   -3.2376   26.4903 O   0  0  0  0  0  0  0  0  0  0  0  0
    4.8861   -4.8158   25.4405 C   0  0  0  0  0  0  0  0  0  0  0  0
    3.7234   -5.6049   24.9156 C   0  0  0  0  0  0  0  0  0  0  0  0
 12 13  1  0  0  0
 13 14  1  0  0  0
 14 15  1  0  0  0
 15 16  1  0  0  0
 16 17  1  0  0  0
 17 18  2  0  0  0
 17  1  1  0  0  0
  1  2  1  0  0  0
  2  3  2  0  0  0
  3  4  1  0  0  0
  4  5  2  0  0  0
  5  6  1  0  0  0
  6  7  2  0  0  0
  7  8  1  0  0  0
  8  9  2  0  0  0
  9 10  1  0  0  0
 10 11  2  0  0  0
 16 19  1  0  0  0
 19 20  1  0  0  0
 20 13  1  0  0  0
 11  2  1  0  0  0
 11  6  1  0  0  0
M  END
> <minimizedAffinity>
-6.54736

> <CNNscore>
0.6127362847

> <CNNaffinity>
5.2136945724

> <CNN_VS>
3.1946198940

> <CNNaffinity_variance>
0.0687442869

$$$$



 20 22  0  0  0  0  0  0  0  0999 V2000
    7.2945   -0.0358   21.4942 C   0  0  0  0  0  0  0  0  0  0  0  0
    6.4477    0.2772   20.2963 C   0  0  0  0  0  0  0  0  0  0  0  0
    6.7696   -0.3410   18.9681 C   0  0  0  0  0  0  0  0  0  0  0  0
    5.9228   -0.0281   17.7702 N   0  0  0  0  0  0  0  0  0  0  0  0
    4.7540    0.9030   17.9005 C   0  0  0  0  0  0  0  0  0  0  0  0
    4.4321    1.5213   19.2288 C   0  0  0  0  0  0  0  0  0  0  0  0
    3.2633    2.4524   19.3591 C   0  0  0  0  0  0  0  0  0  0  0  0
    2.9414    3.0706   20.6873 C   0  0  0  0  0  0  0  0  0  0  0  0
    3.7883    2.7577   21.8852 C   0  0  0  0  0  0  0  0  0  0  0  0
    4.9570    1.8265   21.7549 C   0  0  0  0  0  0  0  0  0  0  0  0
    5.2789    1.2083   20.4267 C   0  0  0  0  0  0  0  0  0  0  0  0
   12.9612   -1.4411   25.1224 C   0  0  0  0  0  0  0  0  0  0  0  0
   11.8450   -0.8792   24.2927 C   0  0  0  0  0  0  0  0  0  0  0  0
   10.6431   -1.7216   23.9831 C   0  0  0  0  0  0  0  0  0  0  0  0
    9.5269   -1.1596   23.1535 C   0  0  0  0  0  0  0  0  0  0  0  0
    9.6126    0.2447   22.6335 N   0  0  0  0  0  0  0  0  0  0  0  0
    8.4963    0.8066   21.8038 C   0  0  0  0  0  0  0  0  0  0  0  0
    8.5820    2.2110   21.2838 O   0  0  0  0  0  0  0  0  0  0  0  0
   10.8144    1.0872   22.9430 C   0  0  0  0  0  0  0  0  0  0  0  0
   11.9307    0.5252   23.7727 C   0  0  0  0  0  0  0  0  0  0  0  0
 12 13  1  0  0  0
 13 14  1  0  0  0
 14 15  1  0  0  0
 15 16  1  0  0  0
 16 17  1  0  0  0
 17 18  2  0  0  0
 17  1  1  0  0  0
  1  2  1  0  0  0
  2  3  2  0  0  0
  3  4  1  0  0  0
  4  5  2  0  0  0
  5  6  1  0  0  0
  6  7  2  0  0  0
  7  8  1  0  0  0
  8  9  2  0  0  0
  9 10  1  0  0  0
 10 11  2  0  0  0
 16 19  1  0  0  0
 19 20  1  0  0  0
 20 13  1  0  0  0
 11  2  1  0  0  0
 11  6  1  0  0  0
M  END
> <minimizedAffinity>
-7.06399

> <CNNscore>
0.6098064184

> <CNNaffinity>
5.0901169777

> <CNN_VS>
3.1039860249

> <CNNaffinity_variance>
0.1529217958

$$$$
