


 20 22  0  0  0  0  0  0  0  0999 V2000
   -6.4559   -2.0419  -21.7085 C   0  0  0  0  0  0  0  0  0  0  0  0
   -5.9998   -1.2237  -20.5370 C   0  0  0  0  0  0  0  0  0  0  0  0
   -6.6866   -1.3645  -19.2109 C   0  0  0  0  0  0  0  0  0  0  0  0
   -6.2305   -0.5462  -18.0394 N   0  0  0  0  0  0  0  0  0  0  0  0
   -5.0876    0.4129  -18.1940 C   0  0  0  0  0  0  0  0  0  0  0  0
   -4.4007    0.5537  -19.5200 C   0  0  0  0  0  0  0  0  0  0  0  0
   -3.2578    1.5127  -19.6746 C   0  0  0  0  0  0  0  0  0  0  0  0
   -2.5710    1.6535  -21.0006 C   0  0  0  0  0  0  0  0  0  0  0  0
   -3.0271    0.8353  -22.1721 C   0  0  0  0  0  0  0  0  0  0  0  0
   -4.1700   -0.1238  -22.0176 C   0  0  0  0  0  0  0  0  0  0  0  0
   -4.8568   -0.2646  -20.6915 C   0  0  0  0  0  0  0  0  0  0  0  0
   -9.0102   -6.9919  -25.7362 C   0  0  0  0  0  0  0  0  0  0  0  0
   -8.3036   -6.1231  -24.7384 C   0  0  0  0  0  0  0  0  0  0  0  0
   -8.5759   -4.6485  -24.7020 C   0  0  0  0  0  0  0  0  0  0  0  0
   -7.8692   -3.7796  -23.7042 C   0  0  0  0  0  0  0  0  0  0  0  0
   -6.8902   -4.3854  -22.7427 N   0  0  0  0  0  0  0  0  0  0  0  0
   -6.1835   -3.5165  -21.7448 C   0  0  0  0  0  0  0  0  0  0  0  0
   -5.2044   -4.1224  -20.7833 O   0  0  0  0  0  0  0  0  0  0  0  0
   -6.6178   -5.8600  -22.7790 C   0  0  0  0  0  0  0  0  0  0  0  0
   -7.3245   -6.7289  -23.7769 C   0  0  0  0  0  0  0  0  0  0  0  0
 12 13  1  0  0  0
 13 14  1  0  0  0
 14 15  1  0  0  0
 15 16  1  0  0  0
 16 17  1  0  0  0
 17 18  2  0  0  0
 17  1  1  0  0  0
  1  2  1  0  0  0
  2  3  2  0  0  0
  3  4  1  0  0  0
  4  5  2  0  0  0
  5  6  1  0  0  0
  6  7  2  0  0  0
  7  8  1  0  0  0
  8  9  2  0  0  0
  9 10  1  0  0  0
 10 11  2  0  0  0
 16 19  1  0  0  0
 19 20  1  0  0  0
 20 13  1  0  0  0
 11  2  1  0  0  0
 11  6  1  0  0  0
M  END
> <minimizedAffinity>
-7.13676

> <CNNscore>
0.7674996853

> <CNNaffinity>
5.0684957504

> <CNN_VS>
3.8900690079

> <CNNaffinity_variance>
0.3103816807

$$$$



 20 22  0  0  0  0  0  0  0  0999 V2000
   -6.5802   -2.1955  -21.6150 C   0  0  0  0  0  0  0  0  0  0  0  0
   -6.0484   -1.3562  -20.4912 C   0  0  0  0  0  0  0  0  0  0  0  0
   -6.6285   -1.4915  -19.1146 C   0  0  0  0  0  0  0  0  0  0  0  0
   -6.0967   -0.6522  -17.9908 N   0  0  0  0  0  0  0  0  0  0  0  0
   -4.9848    0.3223  -18.2437 C   0  0  0  0  0  0  0  0  0  0  0  0
   -4.4047    0.4576  -19.6204 C   0  0  0  0  0  0  0  0  0  0  0  0
   -3.2928    1.4321  -19.8732 C   0  0  0  0  0  0  0  0  0  0  0  0
   -2.7127    1.5674  -21.2498 C   0  0  0  0  0  0  0  0  0  0  0  0
   -3.2445    0.7281  -22.3736 C   0  0  0  0  0  0  0  0  0  0  0  0
   -4.3563   -0.2464  -22.1208 C   0  0  0  0  0  0  0  0  0  0  0  0
   -4.9365   -0.3817  -20.7441 C   0  0  0  0  0  0  0  0  0  0  0  0
  -10.3234   -5.6898  -26.2006 C   0  0  0  0  0  0  0  0  0  0  0  0
   -9.7334   -4.7557  -25.1861 C   0  0  0  0  0  0  0  0  0  0  0  0
   -8.3502   -4.9978  -24.6588 C   0  0  0  0  0  0  0  0  0  0  0  0
   -7.7602   -4.0637  -23.6442 C   0  0  0  0  0  0  0  0  0  0  0  0
   -8.5534   -2.8875  -23.1569 N   0  0  0  0  0  0  0  0  0  0  0  0
   -7.9634   -1.9534  -22.1423 C   0  0  0  0  0  0  0  0  0  0  0  0
   -8.7567   -0.7773  -21.6550 O   0  0  0  0  0  0  0  0  0  0  0  0
   -9.9367   -2.6454  -23.6842 C   0  0  0  0  0  0  0  0  0  0  0  0
  -10.5267   -3.5795  -24.6988 C   0  0  0  0  0  0  0  0  0  0  0  0
 12 13  1  0  0  0
 13 14  1  0  0  0
 14 15  1  0  0  0
 15 16  1  0  0  0
 16 17  1  0  0  0
 17 18  2  0  0  0
 17  1  1  0  0  0
  1  2  1  0  0  0
  2  3  2  0  0  0
  3  4  1  0  0  0
  4  5  2  0  0  0
  5  6  1  0  0  0
  6  7  2  0  0  0
  7  8  1  0  0  0
  8  9  2  0  0  0
  9 10  1  0  0  0
 10 11  2  0  0  0
 16 19  1  0  0  0
 19 20  1  0  0  0
 20 13  1  0  0  0
 11  2  1  0  0  0
 11  6  1  0  0  0
M  END
> <minimizedAffinity>
-6.77765

> <CNNscore>
0.6888592243

> <CNNaffinity>
4.9388403893

> <CNN_VS>
3.4021656513

> <CNNaffinity_variance>
0.2521604598

$$$$



 20 22  0  0  0  0  0  0  0  0999 V2000
   -7.2974   -0.9772  -21.1718 C   0  0  0  0  0  0  0  0  0  0  0  0
   -8.2429   -0.1303  -21.9710 C   0  0  0  0  0  0  0  0  0  0  0  0
   -7.9082    1.3042  -22.2544 C   0  0  0  0  0  0  0  0  0  0  0  0
   -8.8536    2.1511  -23.0536 N   0  0  0  0  0  0  0  0  0  0  0  0
  -10.1337    1.5637  -23.5694 C   0  0  0  0  0  0  0  0  0  0  0  0
  -10.4685    0.1292  -23.2860 C   0  0  0  0  0  0  0  0  0  0  0  0
  -11.7486   -0.4582  -23.8018 C   0  0  0  0  0  0  0  0  0  0  0  0
  -12.0833   -1.8927  -23.5184 C   0  0  0  0  0  0  0  0  0  0  0  0
  -11.1379   -2.7396  -22.7192 C   0  0  0  0  0  0  0  0  0  0  0  0
   -9.8577   -2.1522  -22.2034 C   0  0  0  0  0  0  0  0  0  0  0  0
   -9.5231   -0.7178  -22.4868 C   0  0  0  0  0  0  0  0  0  0  0  0
   -1.1281    2.0527  -21.2672 C   0  0  0  0  0  0  0  0  0  0  0  0
   -2.4682    1.4491  -20.9676 C   0  0  0  0  0  0  0  0  0  0  0  0
   -3.2771    0.8336  -22.0706 C   0  0  0  0  0  0  0  0  0  0  0  0
   -4.6172    0.2300  -21.7710 C   0  0  0  0  0  0  0  0  0  0  0  0
   -5.1484    0.2419  -20.3683 N   0  0  0  0  0  0  0  0  0  0  0  0
   -6.4885   -0.3617  -20.0687 C   0  0  0  0  0  0  0  0  0  0  0  0
   -7.0198   -0.3498  -18.6659 O   0  0  0  0  0  0  0  0  0  0  0  0
   -4.3396    0.8574  -19.2651 C   0  0  0  0  0  0  0  0  0  0  0  0
   -2.9994    1.4610  -19.5648 C   0  0  0  0  0  0  0  0  0  0  0  0
 12 13  1  0  0  0
 13 14  1  0  0  0
 14 15  1  0  0  0
 15 16  1  0  0  0
 16 17  1  0  0  0
 17 18  2  0  0  0
 17  1  1  0  0  0
  1  2  1  0  0  0
  2  3  2  0  0  0
  3  4  1  0  0  0
  4  5  2  0  0  0
  5  6  1  0  0  0
  6  7  2  0  0  0
  7  8  1  0  0  0
  8  9  2  0  0  0
  9 10  1  0  0  0
 10 11  2  0  0  0
 16 19  1  0  0  0
 19 20  1  0  0  0
 20 13  1  0  0  0
 11  2  1  0  0  0
 11  6  1  0  0  0
M  END
> <minimizedAffinity>
-6.20136

> <CNNscore>
0.5417551398

> <CNNaffinity>
4.7577004433

> <CNN_VS>
2.5775086880

> <CNNaffinity_variance>
0.1447774023

$$$$



 20 22  0  0  0  0  0  0  0  0999 V2000
   -6.4830   -1.6343  -20.8083 C   0  0  0  0  0  0  0  0  0  0  0  0
   -5.4571   -0.6079  -20.4288 C   0  0  0  0  0  0  0  0  0  0  0  0
   -5.3789   -0.1128  -19.0150 C   0  0  0  0  0  0  0  0  0  0  0  0
   -4.3531    0.9136  -18.6355 N   0  0  0  0  0  0  0  0  0  0  0  0
   -3.4054    1.4450  -19.6697 C   0  0  0  0  0  0  0  0  0  0  0  0
   -3.4836    0.9499  -21.0835 C   0  0  0  0  0  0  0  0  0  0  0  0
   -2.5360    1.4813  -22.1177 C   0  0  0  0  0  0  0  0  0  0  0  0
   -2.6142    0.9862  -23.5314 C   0  0  0  0  0  0  0  0  0  0  0  0
   -3.6400   -0.0403  -23.9110 C   0  0  0  0  0  0  0  0  0  0  0  0
   -4.5877   -0.5716  -22.8768 C   0  0  0  0  0  0  0  0  0  0  0  0
   -4.5095   -0.0765  -21.4631 C   0  0  0  0  0  0  0  0  0  0  0  0
  -10.3481   -4.7600  -25.5560 C   0  0  0  0  0  0  0  0  0  0  0  0
   -9.7011   -3.8723  -24.5345 C   0  0  0  0  0  0  0  0  0  0  0  0
   -8.4240   -4.2974  -23.8727 C   0  0  0  0  0  0  0  0  0  0  0  0
   -7.7770   -3.4097  -22.8512 C   0  0  0  0  0  0  0  0  0  0  0  0
   -8.4071   -2.0969  -22.4916 N   0  0  0  0  0  0  0  0  0  0  0  0
   -7.7601   -1.2092  -21.4702 C   0  0  0  0  0  0  0  0  0  0  0  0
   -8.3903    0.1037  -21.1106 O   0  0  0  0  0  0  0  0  0  0  0  0
   -9.6843   -1.6717  -23.1535 C   0  0  0  0  0  0  0  0  0  0  0  0
  -10.3313   -2.5594  -24.1750 C   0  0  0  0  0  0  0  0  0  0  0  0
 12 13  1  0  0  0
 13 14  1  0  0  0
 14 15  1  0  0  0
 15 16  1  0  0  0
 16 17  1  0  0  0
 17 18  2  0  0  0
 17  1  1  0  0  0
  1  2  1  0  0  0
  2  3  2  0  0  0
  3  4  1  0  0  0
  4  5  2  0  0  0
  5  6  1  0  0  0
  6  7  2  0  0  0
  7  8  1  0  0  0
  8  9  2  0  0  0
  9 10  1  0  0  0
 10 11  2  0  0  0
 16 19  1  0  0  0
 19 20  1  0  0  0
 20 13  1  0  0  0
 11  2  1  0  0  0
 11  6  1  0  0  0
M  END
> <minimizedAffinity>
-6.06381

> <CNNscore>
0.4816995859

> <CNNaffinity>
4.5877003670

> <CNN_VS>
2.2098934650

> <CNNaffinity_variance>
0.2956317365

$$$$



 20 22  0  0  0  0  0  0  0  0999 V2000
   -8.9175   -1.7622  -23.9392 C   0  0  0  0  0  0  0  0  0  0  0  0
  -10.3609   -1.6674  -23.5422 C   0  0  0  0  0  0  0  0  0  0  0  0
  -11.0969   -2.8943  -23.0917 C   0  0  0  0  0  0  0  0  0  0  0  0
  -12.5403   -2.7995  -22.6947 N   0  0  0  0  0  0  0  0  0  0  0  0
  -13.2477   -1.4779  -22.7482 C   0  0  0  0  0  0  0  0  0  0  0  0
  -12.5116   -0.2510  -23.1987 C   0  0  0  0  0  0  0  0  0  0  0  0
  -13.2190    1.0707  -23.2522 C   0  0  0  0  0  0  0  0  0  0  0  0
  -12.4830    2.2975  -23.7026 C   0  0  0  0  0  0  0  0  0  0  0  0
  -11.0396    2.2028  -24.0996 C   0  0  0  0  0  0  0  0  0  0  0  0
  -10.3322    0.8812  -24.0462 C   0  0  0  0  0  0  0  0  0  0  0  0
  -11.0682   -0.3457  -23.5957 C   0  0  0  0  0  0  0  0  0  0  0  0
   -8.3722   -6.8331  -28.5476 C   0  0  0  0  0  0  0  0  0  0  0  0
   -8.3305   -5.8950  -27.3780 C   0  0  0  0  0  0  0  0  0  0  0  0
   -9.0426   -4.5767  -27.4481 C   0  0  0  0  0  0  0  0  0  0  0  0
   -9.0009   -3.6385  -26.2785 C   0  0  0  0  0  0  0  0  0  0  0  0
   -8.2470   -4.0186  -25.0387 N   0  0  0  0  0  0  0  0  0  0  0  0
   -8.2053   -3.0804  -23.8690 C   0  0  0  0  0  0  0  0  0  0  0  0
   -7.4514   -3.4606  -22.6292 O   0  0  0  0  0  0  0  0  0  0  0  0
   -7.5348   -5.3369  -24.9685 C   0  0  0  0  0  0  0  0  0  0  0  0
   -7.5765   -6.2751  -26.1381 C   0  0  0  0  0  0  0  0  0  0  0  0
 12 13  1  0  0  0
 13 14  1  0  0  0
 14 15  1  0  0  0
 15 16  1  0  0  0
 16 17  1  0  0  0
 17 18  2  0  0  0
 17  1  1  0  0  0
  1  2  1  0  0  0
  2  3  2  0  0  0
  3  4  1  0  0  0
  4  5  2  0  0  0
  5  6  1  0  0  0
  6  7  2  0  0  0
  7  8  1  0  0  0
  8  9  2  0  0  0
  9 10  1  0  0  0
 10 11  2  0  0  0
 16 19  1  0  0  0
 19 20  1  0  0  0
 20 13  1  0  0  0
 11  2  1  0  0  0
 11  6  1  0  0  0
M  END
> <minimizedAffinity>
-5.86610

> <CNNscore>
0.4545777440

> <CNNaffinity>
4.6481876373

> <CNN_VS>
2.1129627228

> <CNNaffinity_variance>
0.2511896491

$$$$



 20 22  0  0  0  0  0  0  0  0999 V2000
   -5.3226   -1.5867  -20.6176 C   0  0  0  0  0  0  0  0  0  0  0  0
   -6.4891   -0.7746  -21.0969 C   0  0  0  0  0  0  0  0  0  0  0  0
   -7.8675   -1.3663  -21.0919 C   0  0  0  0  0  0  0  0  0  0  0  0
   -9.0340   -0.5543  -21.5713 N   0  0  0  0  0  0  0  0  0  0  0  0
   -8.8222    0.8495  -22.0556 C   0  0  0  0  0  0  0  0  0  0  0  0
   -7.4438    1.4412  -22.0606 C   0  0  0  0  0  0  0  0  0  0  0  0
   -7.2321    2.8450  -22.5450 C   0  0  0  0  0  0  0  0  0  0  0  0
   -5.8537    3.4366  -22.5500 C   0  0  0  0  0  0  0  0  0  0  0  0
   -4.6872    2.6246  -22.0706 C   0  0  0  0  0  0  0  0  0  0  0  0
   -4.8990    1.2209  -21.5863 C   0  0  0  0  0  0  0  0  0  0  0  0
   -6.2773    0.6292  -21.5813 C   0  0  0  0  0  0  0  0  0  0  0  0
   -6.8088   -6.3369  -25.3585 C   0  0  0  0  0  0  0  0  0  0  0  0
   -6.4668   -5.5222  -24.1464 C   0  0  0  0  0  0  0  0  0  0  0  0
   -6.3487   -4.0308  -24.2540 C   0  0  0  0  0  0  0  0  0  0  0  0
   -6.0067   -3.2161  -23.0419 C   0  0  0  0  0  0  0  0  0  0  0  0
   -5.7827   -3.8928  -21.7221 N   0  0  0  0  0  0  0  0  0  0  0  0
   -5.4406   -3.0781  -20.5100 C   0  0  0  0  0  0  0  0  0  0  0  0
   -5.2166   -3.7549  -19.1902 O   0  0  0  0  0  0  0  0  0  0  0  0
   -5.9007   -5.3843  -21.6144 C   0  0  0  0  0  0  0  0  0  0  0  0
   -6.2428   -6.1991  -22.8265 C   0  0  0  0  0  0  0  0  0  0  0  0
 12 13  1  0  0  0
 13 14  1  0  0  0
 14 15  1  0  0  0
 15 16  1  0  0  0
 16 17  1  0  0  0
 17 18  2  0  0  0
 17  1  1  0  0  0
  1  2  1  0  0  0
  2  3  2  0  0  0
  3  4  1  0  0  0
  4  5  2  0  0  0
  5  6  1  0  0  0
  6  7  2  0  0  0
  7  8  1  0  0  0
  8  9  2  0  0  0
  9 10  1  0  0  0
 10 11  2  0  0  0
 16 19  1  0  0  0
 19 20  1  0  0  0
 20 13  1  0  0  0
 11  2  1  0  0  0
 11  6  1  0  0  0
M  END
> <minimizedAffinity>
-5.71779

> <CNNscore>
0.4274152517

> <CNNaffinity>
4.8399996758

> <CNN_VS>
2.0686895847

> <CNNaffinity_variance>
0.0660686940

$$$$



 20 22  0  0  0  0  0  0  0  0999 V2000
   -8.0972    0.3061  -22.1646 C   0  0  0  0  0  0  0  0  0  0  0  0
   -9.2291   -0.6128  -22.5175 C   0  0  0  0  0  0  0  0  0  0  0  0
   -9.0195   -2.0980  -22.5101 C   0  0  0  0  0  0  0  0  0  0  0  0
  -10.1514   -3.0169  -22.8630 N   0  0  0  0  0  0  0  0  0  0  0  0
  -11.4929   -2.4505  -23.2231 C   0  0  0  0  0  0  0  0  0  0  0  0
  -11.7024   -0.9652  -23.2304 C   0  0  0  0  0  0  0  0  0  0  0  0
  -13.0439   -0.3988  -23.5906 C   0  0  0  0  0  0  0  0  0  0  0  0
  -13.2534    1.0864  -23.5979 C   0  0  0  0  0  0  0  0  0  0  0  0
  -12.1215    2.0053  -23.2451 C   0  0  0  0  0  0  0  0  0  0  0  0
  -10.7801    1.4389  -22.8849 C   0  0  0  0  0  0  0  0  0  0  0  0
  -10.5706   -0.0463  -22.8776 C   0  0  0  0  0  0  0  0  0  0  0  0
   -1.9689    2.8205  -20.3282 C   0  0  0  0  0  0  0  0  0  0  0  0
   -3.2831    2.1161  -20.4917 C   0  0  0  0  0  0  0  0  0  0  0  0
   -4.1546    2.4194  -21.6742 C   0  0  0  0  0  0  0  0  0  0  0  0
   -5.4688    1.7150  -21.8377 C   0  0  0  0  0  0  0  0  0  0  0  0
   -5.9115    0.7072  -20.8187 N   0  0  0  0  0  0  0  0  0  0  0  0
   -7.2256    0.0028  -20.9821 C   0  0  0  0  0  0  0  0  0  0  0  0
   -7.6683   -1.0050  -19.9630 O   0  0  0  0  0  0  0  0  0  0  0  0
   -5.0399    0.4039  -19.6361 C   0  0  0  0  0  0  0  0  0  0  0  0
   -3.7257    1.1083  -19.4726 C   0  0  0  0  0  0  0  0  0  0  0  0
 12 13  1  0  0  0
 13 14  1  0  0  0
 14 15  1  0  0  0
 15 16  1  0  0  0
 16 17  1  0  0  0
 17 18  2  0  0  0
 17  1  1  0  0  0
  1  2  1  0  0  0
  2  3  2  0  0  0
  3  4  1  0  0  0
  4  5  2  0  0  0
  5  6  1  0  0  0
  6  7  2  0  0  0
  7  8  1  0  0  0
  8  9  2  0  0  0
  9 10  1  0  0  0
 10 11  2  0  0  0
 16 19  1  0  0  0
 19 20  1  0  0  0
 20 13  1  0  0  0
 11  2  1  0  0  0
 11  6  1  0  0  0
M  END
> <minimizedAffinity>
-6.56955

> <CNNscore>
0.3794922233

> <CNNaffinity>
4.4529967308

> <CNN_VS>
1.6898776293

> <CNNaffinity_variance>
0.3076130748

$$$$



 20 22  0  0  0  0  0  0  0  0999 V2000
   -8.6117   -1.4074  -23.9937 C   0  0  0  0  0  0  0  0  0  0  0  0
  -10.0630   -1.3512  -23.6187 C   0  0  0  0  0  0  0  0  0  0  0  0
  -10.7725   -2.5970  -23.1777 C   0  0  0  0  0  0  0  0  0  0  0  0
  -12.2237   -2.5408  -22.8027 N   0  0  0  0  0  0  0  0  0  0  0  0
  -12.9655   -1.2387  -22.8686 C   0  0  0  0  0  0  0  0  0  0  0  0
  -12.2560    0.0072  -23.3096 C   0  0  0  0  0  0  0  0  0  0  0  0
  -12.9977    1.3093  -23.3755 C   0  0  0  0  0  0  0  0  0  0  0  0
  -12.2882    2.5551  -23.8164 C   0  0  0  0  0  0  0  0  0  0  0  0
  -10.8369    2.4988  -24.1914 C   0  0  0  0  0  0  0  0  0  0  0  0
  -10.0952    1.1968  -24.1255 C   0  0  0  0  0  0  0  0  0  0  0  0
  -10.8047   -0.0490  -23.6846 C   0  0  0  0  0  0  0  0  0  0  0  0
   -6.1618   -7.6992  -22.7045 C   0  0  0  0  0  0  0  0  0  0  0  0
   -6.5206   -6.2445  -22.7772 C   0  0  0  0  0  0  0  0  0  0  0  0
   -7.5353   -5.7714  -23.7754 C   0  0  0  0  0  0  0  0  0  0  0  0
   -7.8941   -4.3167  -23.8481 C   0  0  0  0  0  0  0  0  0  0  0  0
   -7.2381   -3.3352  -22.9228 N   0  0  0  0  0  0  0  0  0  0  0  0
   -7.5969   -1.8806  -22.9956 C   0  0  0  0  0  0  0  0  0  0  0  0
   -6.9409   -0.8991  -22.0701 O   0  0  0  0  0  0  0  0  0  0  0  0
   -6.2233   -3.8084  -21.9246 C   0  0  0  0  0  0  0  0  0  0  0  0
   -5.8645   -5.2630  -21.8518 C   0  0  0  0  0  0  0  0  0  0  0  0
 12 13  1  0  0  0
 13 14  1  0  0  0
 14 15  1  0  0  0
 15 16  1  0  0  0
 16 17  1  0  0  0
 17 18  2  0  0  0
 17  1  1  0  0  0
  1  2  1  0  0  0
  2  3  2  0  0  0
  3  4  1  0  0  0
  4  5  2  0  0  0
  5  6  1  0  0  0
  6  7  2  0  0  0
  7  8  1  0  0  0
  8  9  2  0  0  0
  9 10  1  0  0  0
 10 11  2  0  0  0
 16 19  1  0  0  0
 19 20  1  0  0  0
 20 13  1  0  0  0
 11  2  1  0  0  0
 11  6  1  0  0  0
M  END
> <minimizedAffinity>
-5.89677

> <CNNscore>
0.3662970364

> <CNNaffinity>
4.8862767220

> <CNN_VS>
1.7898286581

> <CNNaffinity_variance>
0.1918043494

$$$$



 20 22  0  0  0  0  0  0  0  0999 V2000
   -7.1513   -0.2084  -22.1653 C   0  0  0  0  0  0  0  0  0  0  0  0
   -6.4097   -0.0872  -20.8671 C   0  0  0  0  0  0  0  0  0  0  0  0
   -6.9678   -0.7127  -19.6233 C   0  0  0  0  0  0  0  0  0  0  0  0
   -6.2262   -0.5916  -18.3251 N   0  0  0  0  0  0  0  0  0  0  0  0
   -4.9264    0.1550  -18.2708 C   0  0  0  0  0  0  0  0  0  0  0  0
   -4.3681    0.7806  -19.5147 C   0  0  0  0  0  0  0  0  0  0  0  0
   -3.0683    1.5272  -19.4603 C   0  0  0  0  0  0  0  0  0  0  0  0
   -2.5102    2.1527  -20.7042 C   0  0  0  0  0  0  0  0  0  0  0  0
   -3.2519    2.0316  -22.0023 C   0  0  0  0  0  0  0  0  0  0  0  0
   -4.5517    1.2850  -22.0567 C   0  0  0  0  0  0  0  0  0  0  0  0
   -5.1098    0.6595  -20.8128 C   0  0  0  0  0  0  0  0  0  0  0  0
  -13.8566   -0.9033  -23.5092 C   0  0  0  0  0  0  0  0  0  0  0  0
  -12.4399   -0.4751  -23.2653 C   0  0  0  0  0  0  0  0  0  0  0  0
  -11.4016   -1.4930  -22.8969 C   0  0  0  0  0  0  0  0  0  0  0  0
   -9.9848   -1.0648  -22.6531 C   0  0  0  0  0  0  0  0  0  0  0  0
   -9.6064    0.3813  -22.7776 N   0  0  0  0  0  0  0  0  0  0  0  0
   -8.1897    0.8095  -22.5337 C   0  0  0  0  0  0  0  0  0  0  0  0
   -7.8113    2.2557  -22.6582 O   0  0  0  0  0  0  0  0  0  0  0  0
  -10.6447    1.3993  -23.1460 C   0  0  0  0  0  0  0  0  0  0  0  0
  -12.0615    0.9711  -23.3898 C   0  0  0  0  0  0  0  0  0  0  0  0
 12 13  1  0  0  0
 13 14  1  0  0  0
 14 15  1  0  0  0
 15 16  1  0  0  0
 16 17  1  0  0  0
 17 18  2  0  0  0
 17  1  1  0  0  0
  1  2  1  0  0  0
  2  3  2  0  0  0
  3  4  1  0  0  0
  4  5  2  0  0  0
  5  6  1  0  0  0
  6  7  2  0  0  0
  7  8  1  0  0  0
  8  9  2  0  0  0
  9 10  1  0  0  0
 10 11  2  0  0  0
 16 19  1  0  0  0
 19 20  1  0  0  0
 20 13  1  0  0  0
 11  2  1  0  0  0
 11  6  1  0  0  0
M  END
> <minimizedAffinity>
-6.34503

> <CNNscore>
0.3610311449

> <CNNaffinity>
4.6468186378

> <CNN_VS>
1.6776462793

> <CNNaffinity_variance>
0.1275326312

$$$$
