


 42 47  0  0  0  0  0  0  0  0999 V2000
   10.1317    0.4336   23.0245 N   0  0  0  0  0  0  0  0  0  0  0  0
    8.9435   -0.4656   22.8523 C   0  0  0  0  0  0  0  0  0  0  0  0
    8.8710   -1.7642   23.5995 C   0  0  0  0  0  0  0  0  0  0  0  0
    8.6599   -3.0858   24.2767 C   0  0  0  0  0  0  0  0  0  0  0  0
    9.2138   -3.8273   25.0640 O   0  0  0  0  0  0  0  0  0  0  0  0
    7.3437   -3.6380   23.8156 N   0  0  0  0  0  0  0  0  0  0  0  0
    6.7413   -2.6576   22.8534 C   0  0  0  0  0  0  0  0  0  0  0  0
    7.6852   -1.4995   22.7198 C   0  0  0  0  0  0  0  0  0  0  0  0
    9.9869   -2.1637   24.5190 C   0  0  0  0  0  0  0  0  0  0  0  0
    9.9144   -3.4623   25.2662 C   0  0  0  0  0  0  0  0  0  0  0  0
   11.0302   -3.8618   26.1856 C   0  0  0  0  0  0  0  0  0  0  0  0
   10.9578   -5.1604   26.9328 Cl  0  0  0  0  0  0  0  0  0  0  0  0
   12.2185   -2.9627   26.3578 C   0  0  0  0  0  0  0  0  0  0  0  0
   12.2909   -1.6641   25.6106 C   0  0  0  0  0  0  0  0  0  0  0  0
   11.1751   -1.2646   24.6912 C   0  0  0  0  0  0  0  0  0  0  0  0
   11.2475    0.0341   23.9439 C   0  0  0  0  0  0  0  0  0  0  0  0
   12.4358    0.9332   24.1162 O   0  0  0  0  0  0  0  0  0  0  0  0
    6.7365   -4.9416   24.2419 C   0  0  0  0  0  0  0  0  0  0  0  0
    7.2818   -6.2331   23.7082 C   0  0  0  0  0  0  0  0  0  0  0  0
    6.6746   -7.5368   24.1345 N   0  0  0  0  0  0  0  0  0  0  0  0
    5.5221   -7.5490   25.0945 C   0  0  0  0  0  0  0  0  0  0  0  0
    4.9768   -6.2575   25.6281 C   0  0  0  0  0  0  0  0  0  0  0  0
    3.8242   -6.2698   26.5882 C   0  0  0  0  0  0  0  0  0  0  0  0
    3.2790   -4.9783   27.1218 C   0  0  0  0  0  0  0  0  0  0  0  0
    3.8862   -3.6746   26.6955 C   0  0  0  0  0  0  0  0  0  0  0  0
    5.0387   -3.6624   25.7356 C   0  0  0  0  0  0  0  0  0  0  0  0
    5.5840   -4.9539   25.2019 C   0  0  0  0  0  0  0  0  0  0  0  0
   10.2041    1.7322   22.2773 C   0  0  0  0  0  0  0  0  0  0  0  0
    9.9966    3.0281   23.0037 C   0  0  0  0  0  0  0  0  0  0  0  0
   12.1009    4.4531   22.4644 C   0  0  0  0  0  0  0  0  0  0  0  0
   11.1792    3.8256   23.4677 N   0  0  0  0  0  0  0  0  0  0  0  0
   11.3566    3.9412   24.4655 H   0  0  0  0  0  0  0  0  0  0  0  0
   10.5524    3.3989   24.1499 H   0  0  0  0  0  0  0  0  0  0  0  0
    7.4795   -0.2892   21.8579 C   0  0  0  0  0  0  0  0  0  0  0  0
    7.3356   -0.4418   20.3727 N   0  0  0  0  0  0  0  0  0  0  0  0
    7.9735   -0.9992   19.8711 H   0  0  0  0  0  0  0  0  0  0  0  0
    6.2198    0.2547   19.6517 C   0  0  0  0  0  0  0  0  0  0  0  0
    5.0912    0.8658   20.4283 N   0  0  0  0  0  0  0  0  0  0  0  0
    3.9755    1.5623   19.7073 C   0  0  0  0  0  0  0  0  0  0  0  0
    3.9882    1.6478   18.2098 N   0  0  0  0  0  0  0  0  0  0  0  0
    5.1167    1.0368   17.4333 C   0  0  0  0  0  0  0  0  0  0  0  0
    6.2325    0.3402   18.1542 N   0  0  0  0  0  0  0  0  0  0  0  0
 30 31  1  0  0  0
 31 29  1  0  0  0
 29 28  1  0  0  0
 28  1  1  0  0  0
  1  2  1  0  0  0
  3  2  1  0  0  0
  3  4  1  0  0  0
  4  5  2  0  0  0
  4  6  1  0  0  0
  6 18  1  0  0  0
 18 19  2  0  0  0
 19 20  1  0  0  0
 20 21  2  0  0  0
 21 22  1  0  0  0
 22 23  2  0  0  0
 23 24  1  0  0  0
 24 25  2  0  0  0
 25 26  1  0  0  0
 26 27  2  0  0  0
  6  7  1  0  0  0
  7  8  1  0  0  0
  8 34  1  0  0  0
 34 35  1  0  0  0
 35 37  1  0  0  0
 37 38  2  0  0  0
 38 39  1  0  0  0
 39 40  2  0  0  0
 40 41  1  0  0  0
 41 42  2  0  0  0
  3  9  1  0  0  0
  9 10  2  0  0  0
 10 11  1  0  0  0
 11 12  1  0  0  0
 11 13  2  0  0  0
 13 14  1  0  0  0
 14 15  2  0  0  0
 15 16  1  0  0  0
 16 17  2  0  0  0
 16  1  1  0  0  0
  8  3  1  0  0  0
 42 37  1  0  0  0
 15  9  1  0  0  0
 27 18  1  0  0  0
 27 22  1  0  0  0
 31 32  1  0  0  0
 31 33  1  0  0  0
 35 36  1  0  0  0
M  CHG 1  31   1
M  END
> <minimizedAffinity>
-9.10991

> <CNNscore>
0.4042158723

> <CNNaffinity>
7.1419439316

> <CNN_VS>
2.8868870735

> <CNNaffinity_variance>
0.1505616456

$$$$



 42 47  0  0  0  0  0  0  0  0999 V2000
    6.8189   -3.5040   23.5687 N   0  0  0  0  0  0  0  0  0  0  0  0
    7.0342   -2.1196   23.0331 C   0  0  0  0  0  0  0  0  0  0  0  0
    8.3038   -1.3840   23.3442 C   0  0  0  0  0  0  0  0  0  0  0  0
    9.5159   -0.5298   23.5702 C   0  0  0  0  0  0  0  0  0  0  0  0
   10.5880   -0.5675   24.1407 O   0  0  0  0  0  0  0  0  0  0  0  0
    9.3060    0.7715   22.8542 N   0  0  0  0  0  0  0  0  0  0  0  0
    7.9642    0.7214   22.1856 C   0  0  0  0  0  0  0  0  0  0  0  0
    7.3448   -0.6107   22.4885 C   0  0  0  0  0  0  0  0  0  0  0  0
    9.3583   -2.0329   24.1911 C   0  0  0  0  0  0  0  0  0  0  0  0
   10.6280   -1.2973   24.5023 C   0  0  0  0  0  0  0  0  0  0  0  0
   11.6824   -1.9462   25.3491 C   0  0  0  0  0  0  0  0  0  0  0  0
   12.9521   -1.2107   25.6603 Cl  0  0  0  0  0  0  0  0  0  0  0  0
   11.4671   -3.3307   25.8847 C   0  0  0  0  0  0  0  0  0  0  0  0
   10.1974   -4.0663   25.5736 C   0  0  0  0  0  0  0  0  0  0  0  0
    9.1431   -3.4174   24.7268 C   0  0  0  0  0  0  0  0  0  0  0  0
    7.8733   -4.1529   24.4156 C   0  0  0  0  0  0  0  0  0  0  0  0
    7.6580   -5.5374   24.9512 O   0  0  0  0  0  0  0  0  0  0  0  0
   10.2689    1.9209   22.8138 C   0  0  0  0  0  0  0  0  0  0  0  0
   11.7330    1.6661   22.6101 C   0  0  0  0  0  0  0  0  0  0  0  0
   12.6959    2.8155   22.5698 N   0  0  0  0  0  0  0  0  0  0  0  0
   12.1947    4.2198   22.7331 C   0  0  0  0  0  0  0  0  0  0  0  0
   10.7306    4.4747   22.9368 C   0  0  0  0  0  0  0  0  0  0  0  0
   10.2293    5.8791   23.1001 C   0  0  0  0  0  0  0  0  0  0  0  0
    8.7652    6.1338   23.3038 C   0  0  0  0  0  0  0  0  0  0  0  0
    7.8023    4.9844   23.3442 C   0  0  0  0  0  0  0  0  0  0  0  0
    8.3036    3.5801   23.1809 C   0  0  0  0  0  0  0  0  0  0  0  0
    9.7677    3.3252   22.9772 C   0  0  0  0  0  0  0  0  0  0  0  0
    5.5492   -4.2396   23.2575 C   0  0  0  0  0  0  0  0  0  0  0  0
    5.3997   -5.6786   23.6537 C   0  0  0  0  0  0  0  0  0  0  0  0
    5.9070   -6.4103   21.2130 C   0  0  0  0  0  0  0  0  0  0  0  0
    5.6472   -6.7632   22.6476 N   0  0  0  0  0  0  0  0  0  0  0  0
    5.6388   -7.7406   22.9389 H   0  0  0  0  0  0  0  0  0  0  0  0
    5.4705   -7.0031   23.6231 H   0  0  0  0  0  0  0  0  0  0  0  0
    6.0022   -1.0861   22.0181 C   0  0  0  0  0  0  0  0  0  0  0  0
    5.7666   -1.3442   20.5595 N   0  0  0  0  0  0  0  0  0  0  0  0
    5.9920   -2.2208   20.1721 H   0  0  0  0  0  0  0  0  0  0  0  0
    5.1877   -0.2669   19.6910 C   0  0  0  0  0  0  0  0  0  0  0  0
    5.5610   -0.1916   18.2402 N   0  0  0  0  0  0  0  0  0  0  0  0
    4.9821    0.8857   17.3718 C   0  0  0  0  0  0  0  0  0  0  0  0
    4.0298    1.8877   17.9541 N   0  0  0  0  0  0  0  0  0  0  0  0
    3.6565    1.8124   19.4049 C   0  0  0  0  0  0  0  0  0  0  0  0
    4.2354    0.7351   20.2734 N   0  0  0  0  0  0  0  0  0  0  0  0
 30 31  1  0  0  0
 31 29  1  0  0  0
 29 28  1  0  0  0
 28  1  1  0  0  0
  1  2  1  0  0  0
  3  2  1  0  0  0
  3  4  1  0  0  0
  4  5  2  0  0  0
  4  6  1  0  0  0
  6 18  1  0  0  0
 18 19  2  0  0  0
 19 20  1  0  0  0
 20 21  2  0  0  0
 21 22  1  0  0  0
 22 23  2  0  0  0
 23 24  1  0  0  0
 24 25  2  0  0  0
 25 26  1  0  0  0
 26 27  2  0  0  0
  6  7  1  0  0  0
  7  8  1  0  0  0
  8 34  1  0  0  0
 34 35  1  0  0  0
 35 37  1  0  0  0
 37 38  2  0  0  0
 38 39  1  0  0  0
 39 40  2  0  0  0
 40 41  1  0  0  0
 41 42  2  0  0  0
  3  9  1  0  0  0
  9 10  2  0  0  0
 10 11  1  0  0  0
 11 12  1  0  0  0
 11 13  2  0  0  0
 13 14  1  0  0  0
 14 15  2  0  0  0
 15 16  1  0  0  0
 16 17  2  0  0  0
 16  1  1  0  0  0
  8  3  1  0  0  0
 42 37  1  0  0  0
 15  9  1  0  0  0
 27 18  1  0  0  0
 27 22  1  0  0  0
 31 32  1  0  0  0
 31 33  1  0  0  0
 35 36  1  0  0  0
M  CHG 1  31   1
M  END
> <minimizedAffinity>
-8.58421

> <CNNscore>
0.3643533587

> <CNNaffinity>
6.9782800674

> <CNN_VS>
2.5425598621

> <CNNaffinity_variance>
0.2088741511

$$$$



 42 47  0  0  0  0  0  0  0  0999 V2000
    6.7319   -3.6230   23.6044 N   0  0  0  0  0  0  0  0  0  0  0  0
    6.9222   -2.2349   23.0686 C   0  0  0  0  0  0  0  0  0  0  0  0
    8.1762   -1.4746   23.3839 C   0  0  0  0  0  0  0  0  0  0  0  0
    9.3706   -0.5968   23.6137 C   0  0  0  0  0  0  0  0  0  0  0  0
   10.4412   -0.6134   24.1880 O   0  0  0  0  0  0  0  0  0  0  0  0
    9.1381    0.6997   22.8961 N   0  0  0  0  0  0  0  0  0  0  0  0
    7.7999    0.6232   22.2227 C   0  0  0  0  0  0  0  0  0  0  0  0
    7.2054   -0.7206   22.5242 C   0  0  0  0  0  0  0  0  0  0  0  0
    9.2400   -2.1024   24.2349 C   0  0  0  0  0  0  0  0  0  0  0  0
   10.4940   -1.3422   24.5501 C   0  0  0  0  0  0  0  0  0  0  0  0
   11.5578   -1.9700   25.4011 C   0  0  0  0  0  0  0  0  0  0  0  0
   12.8119   -1.2097   25.7164 Cl  0  0  0  0  0  0  0  0  0  0  0  0
   11.3675   -3.3581   25.9369 C   0  0  0  0  0  0  0  0  0  0  0  0
   10.1135   -4.1183   25.6217 C   0  0  0  0  0  0  0  0  0  0  0  0
    9.0498   -3.4905   24.7707 C   0  0  0  0  0  0  0  0  0  0  0  0
    7.7957   -4.2508   24.4554 C   0  0  0  0  0  0  0  0  0  0  0  0
    7.6054   -5.6389   24.9911 O   0  0  0  0  0  0  0  0  0  0  0  0
   10.0786    1.8676   22.8584 C   0  0  0  0  0  0  0  0  0  0  0  0
   11.5469    1.6417   22.6513 C   0  0  0  0  0  0  0  0  0  0  0  0
   12.4875    2.8096   22.6136 N   0  0  0  0  0  0  0  0  0  0  0  0
   11.9596    4.2034   22.7831 C   0  0  0  0  0  0  0  0  0  0  0  0
   10.4912    4.4293   22.9903 C   0  0  0  0  0  0  0  0  0  0  0  0
    9.9633    5.8231   23.1598 C   0  0  0  0  0  0  0  0  0  0  0  0
    8.4949    6.0489   23.3669 C   0  0  0  0  0  0  0  0  0  0  0  0
    7.5544    4.8810   23.4045 C   0  0  0  0  0  0  0  0  0  0  0  0
    8.0823    3.4872   23.2350 C   0  0  0  0  0  0  0  0  0  0  0  0
    9.5507    3.2613   23.0279 C   0  0  0  0  0  0  0  0  0  0  0  0
    5.4778   -4.3832   23.2891 C   0  0  0  0  0  0  0  0  0  0  0  0
    5.5160   -5.5209   22.3122 C   0  0  0  0  0  0  0  0  0  0  0  0
    3.2130   -6.5318   22.9633 C   0  0  0  0  0  0  0  0  0  0  0  0
    4.6334   -6.7161   22.5180 N   0  0  0  0  0  0  0  0  0  0  0  0
    4.9992   -7.6543   22.3552 H   0  0  0  0  0  0  0  0  0  0  0  0
    5.5994   -6.8415   22.2153 H   0  0  0  0  0  0  0  0  0  0  0  0
    5.8739   -1.2222   22.0494 C   0  0  0  0  0  0  0  0  0  0  0  0
    5.6401   -1.4601   20.5870 N   0  0  0  0  0  0  0  0  0  0  0  0
    5.8390   -2.3404   20.1935 H   0  0  0  0  0  0  0  0  0  0  0  0
    5.1032   -0.3569   19.7240 C   0  0  0  0  0  0  0  0  0  0  0  0
    4.1321    0.6350   20.2925 N   0  0  0  0  0  0  0  0  0  0  0  0
    3.5952    1.7381   19.4296 C   0  0  0  0  0  0  0  0  0  0  0  0
    4.0295    1.8496   17.9981 N   0  0  0  0  0  0  0  0  0  0  0  0
    5.0006    0.8577   17.4297 C   0  0  0  0  0  0  0  0  0  0  0  0
    5.5374   -0.2455   18.2926 N   0  0  0  0  0  0  0  0  0  0  0  0
 30 31  1  0  0  0
 31 29  1  0  0  0
 29 28  1  0  0  0
 28  1  1  0  0  0
  1  2  1  0  0  0
  3  2  1  0  0  0
  3  4  1  0  0  0
  4  5  2  0  0  0
  4  6  1  0  0  0
  6 18  1  0  0  0
 18 19  2  0  0  0
 19 20  1  0  0  0
 20 21  2  0  0  0
 21 22  1  0  0  0
 22 23  2  0  0  0
 23 24  1  0  0  0
 24 25  2  0  0  0
 25 26  1  0  0  0
 26 27  2  0  0  0
  6  7  1  0  0  0
  7  8  1  0  0  0
  8 34  1  0  0  0
 34 35  1  0  0  0
 35 37  1  0  0  0
 37 38  2  0  0  0
 38 39  1  0  0  0
 39 40  2  0  0  0
 40 41  1  0  0  0
 41 42  2  0  0  0
  3  9  1  0  0  0
  9 10  2  0  0  0
 10 11  1  0  0  0
 11 12  1  0  0  0
 11 13  2  0  0  0
 13 14  1  0  0  0
 14 15  2  0  0  0
 15 16  1  0  0  0
 16 17  2  0  0  0
 16  1  1  0  0  0
  8  3  1  0  0  0
 42 37  1  0  0  0
 15  9  1  0  0  0
 27 18  1  0  0  0
 27 22  1  0  0  0
 31 32  1  0  0  0
 31 33  1  0  0  0
 35 36  1  0  0  0
M  CHG 1  31   1
M  END
> <minimizedAffinity>
-8.45660

> <CNNscore>
0.3246337175

> <CNNaffinity>
6.8742523193

> <CNN_VS>
2.2316141129

> <CNNaffinity_variance>
0.2038646936

$$$$



 42 47  0  0  0  0  0  0  0  0999 V2000
   10.0503    0.9963   23.2906 N   0  0  0  0  0  0  0  0  0  0  0  0
    8.6824    0.4309   23.5341 C   0  0  0  0  0  0  0  0  0  0  0  0
    8.5165   -0.7872   24.3935 C   0  0  0  0  0  0  0  0  0  0  0  0
    8.1964   -1.9934   25.2257 C   0  0  0  0  0  0  0  0  0  0  0  0
    8.7569   -2.8343   25.9003 O   0  0  0  0  0  0  0  0  0  0  0  0
    6.7106   -2.1973   25.1942 N   0  0  0  0  0  0  0  0  0  0  0  0
    6.1125   -1.1172   24.3425 C   0  0  0  0  0  0  0  0  0  0  0  0
    7.2286   -0.2457   23.8476 C   0  0  0  0  0  0  0  0  0  0  0  0
    9.7184   -1.4400   25.0094 C   0  0  0  0  0  0  0  0  0  0  0  0
    9.5525   -2.6581   25.8688 C   0  0  0  0  0  0  0  0  0  0  0  0
   10.7544   -3.3108   26.4846 C   0  0  0  0  0  0  0  0  0  0  0  0
   10.5885   -4.5290   27.3441 Cl  0  0  0  0  0  0  0  0  0  0  0  0
   12.1223   -2.7455   26.2410 C   0  0  0  0  0  0  0  0  0  0  0  0
   12.2882   -1.5273   25.3816 C   0  0  0  0  0  0  0  0  0  0  0  0
   11.0863   -0.8746   24.7658 C   0  0  0  0  0  0  0  0  0  0  0  0
   11.2522    0.3436   23.9064 C   0  0  0  0  0  0  0  0  0  0  0  0
   12.6200    0.9090   23.6628 O   0  0  0  0  0  0  0  0  0  0  0  0
    5.9556   -3.2897   25.8919 C   0  0  0  0  0  0  0  0  0  0  0  0
    5.5967   -4.5441   25.1520 C   0  0  0  0  0  0  0  0  0  0  0  0
    4.8417   -5.6365   25.8497 N   0  0  0  0  0  0  0  0  0  0  0  0
    4.4456   -5.4743   27.2873 C   0  0  0  0  0  0  0  0  0  0  0  0
    4.8046   -4.2198   28.0273 C   0  0  0  0  0  0  0  0  0  0  0  0
    4.4085   -4.0577   29.4650 C   0  0  0  0  0  0  0  0  0  0  0  0
    4.7674   -2.8032   30.2048 C   0  0  0  0  0  0  0  0  0  0  0  0
    5.5224   -1.7109   29.5071 C   0  0  0  0  0  0  0  0  0  0  0  0
    5.9185   -1.8730   28.0695 C   0  0  0  0  0  0  0  0  0  0  0  0
    5.5596   -3.1275   27.3295 C   0  0  0  0  0  0  0  0  0  0  0  0
   10.2161    2.2145   22.4311 C   0  0  0  0  0  0  0  0  0  0  0  0
   11.4961    2.9954   22.4760 C   0  0  0  0  0  0  0  0  0  0  0  0
   11.1151    5.5128   22.9932 C   0  0  0  0  0  0  0  0  0  0  0  0
   11.6288    4.1651   23.4055 N   0  0  0  0  0  0  0  0  0  0  0  0
   12.0682    4.0442   24.3180 H   0  0  0  0  0  0  0  0  0  0  0  0
   11.9780    3.2487   23.6859 H   0  0  0  0  0  0  0  0  0  0  0  0
    7.0823    0.9563   22.9623 C   0  0  0  0  0  0  0  0  0  0  0  0
    5.7995    1.1904   22.2212 N   0  0  0  0  0  0  0  0  0  0  0  0
    5.0119    1.5388   22.6982 H   0  0  0  0  0  0  0  0  0  0  0  0
    5.7165    0.8936   20.7531 C   0  0  0  0  0  0  0  0  0  0  0  0
    6.7721    0.0541   20.0968 N   0  0  0  0  0  0  0  0  0  0  0  0
    6.6891   -0.2427   18.6289 C   0  0  0  0  0  0  0  0  0  0  0  0
    5.5504    0.3000   17.8171 N   0  0  0  0  0  0  0  0  0  0  0  0
    4.4948    1.1395   18.4735 C   0  0  0  0  0  0  0  0  0  0  0  0
    4.5778    1.4363   19.9415 N   0  0  0  0  0  0  0  0  0  0  0  0
 30 31  1  0  0  0
 31 29  1  0  0  0
 29 28  1  0  0  0
 28  1  1  0  0  0
  1  2  1  0  0  0
  3  2  1  0  0  0
  3  4  1  0  0  0
  4  5  2  0  0  0
  4  6  1  0  0  0
  6 18  1  0  0  0
 18 19  2  0  0  0
 19 20  1  0  0  0
 20 21  2  0  0  0
 21 22  1  0  0  0
 22 23  2  0  0  0
 23 24  1  0  0  0
 24 25  2  0  0  0
 25 26  1  0  0  0
 26 27  2  0  0  0
  6  7  1  0  0  0
  7  8  1  0  0  0
  8 34  1  0  0  0
 34 35  1  0  0  0
 35 37  1  0  0  0
 37 38  2  0  0  0
 38 39  1  0  0  0
 39 40  2  0  0  0
 40 41  1  0  0  0
 41 42  2  0  0  0
  3  9  1  0  0  0
  9 10  2  0  0  0
 10 11  1  0  0  0
 11 12  1  0  0  0
 11 13  2  0  0  0
 13 14  1  0  0  0
 14 15  2  0  0  0
 15 16  1  0  0  0
 16 17  2  0  0  0
 16  1  1  0  0  0
  8  3  1  0  0  0
 42 37  1  0  0  0
 15  9  1  0  0  0
 27 18  1  0  0  0
 27 22  1  0  0  0
 31 32  1  0  0  0
 31 33  1  0  0  0
 35 36  1  0  0  0
M  CHG 1  31   1
M  END
> <minimizedAffinity>
-8.43393

> <CNNscore>
0.2931800783

> <CNNaffinity>
6.7793006897

> <CNN_VS>
1.9875558615

> <CNNaffinity_variance>
0.2226036042

$$$$



 42 47  0  0  0  0  0  0  0  0999 V2000
   10.7051    1.5162   22.8228 N   0  0  0  0  0  0  0  0  0  0  0  0
    9.3123    1.0657   23.1503 C   0  0  0  0  0  0  0  0  0  0  0  0
    9.0978   -0.1654   23.9798 C   0  0  0  0  0  0  0  0  0  0  0  0
    8.7294   -1.3700   24.7942 C   0  0  0  0  0  0  0  0  0  0  0  0
    9.2577   -2.2832   25.3970 O   0  0  0  0  0  0  0  0  0  0  0  0
    7.2328   -1.4395   24.8682 N   0  0  0  0  0  0  0  0  0  0  0  0
    6.6763   -0.2779   24.0994 C   0  0  0  0  0  0  0  0  0  0  0  0
    7.8290    0.5095   23.5504 C   0  0  0  0  0  0  0  0  0  0  0  0
   10.2762   -0.9462   24.4819 C   0  0  0  0  0  0  0  0  0  0  0  0
   10.0617   -2.1774   25.3114 C   0  0  0  0  0  0  0  0  0  0  0  0
   11.2400   -2.9581   25.8134 C   0  0  0  0  0  0  0  0  0  0  0  0
   11.0256   -4.1894   26.6429 Cl  0  0  0  0  0  0  0  0  0  0  0  0
   12.6328   -2.5076   25.4859 C   0  0  0  0  0  0  0  0  0  0  0  0
   12.8472   -1.2764   24.6564 C   0  0  0  0  0  0  0  0  0  0  0  0
   11.6689   -0.4957   24.1544 C   0  0  0  0  0  0  0  0  0  0  0  0
   11.8834    0.7356   23.3248 C   0  0  0  0  0  0  0  0  0  0  0  0
   13.2761    1.1861   22.9973 O   0  0  0  0  0  0  0  0  0  0  0  0
    6.4331   -2.4867   25.5850 C   0  0  0  0  0  0  0  0  0  0  0  0
    5.8452   -2.1897   26.9326 C   0  0  0  0  0  0  0  0  0  0  0  0
    5.0456   -3.2369   27.6495 N   0  0  0  0  0  0  0  0  0  0  0  0
    4.8339   -4.5812   27.0186 C   0  0  0  0  0  0  0  0  0  0  0  0
    5.4218   -4.8783   25.6710 C   0  0  0  0  0  0  0  0  0  0  0  0
    5.2100   -6.2227   25.0401 C   0  0  0  0  0  0  0  0  0  0  0  0
    5.7980   -6.5197   23.6925 C   0  0  0  0  0  0  0  0  0  0  0  0
    6.5976   -5.4724   22.9757 C   0  0  0  0  0  0  0  0  0  0  0  0
    6.8093   -4.1281   23.6065 C   0  0  0  0  0  0  0  0  0  0  0  0
    6.2214   -3.8311   24.9542 C   0  0  0  0  0  0  0  0  0  0  0  0
   10.9195    2.7475   21.9933 C   0  0  0  0  0  0  0  0  0  0  0  0
   11.9624    3.7488   22.3929 C   0  0  0  0  0  0  0  0  0  0  0  0
   10.8658    6.0616   22.8379 C   0  0  0  0  0  0  0  0  0  0  0  0
   11.6122    4.8602   23.3373 N   0  0  0  0  0  0  0  0  0  0  0  0
   11.8816    4.7990   24.3192 H   0  0  0  0  0  0  0  0  0  0  0  0
   12.1198    4.0432   23.6769 H   0  0  0  0  0  0  0  0  0  0  0  0
    7.7301    1.7534   22.7180 C   0  0  0  0  0  0  0  0  0  0  0  0
    6.4476    2.0852   22.0145 N   0  0  0  0  0  0  0  0  0  0  0  0
    5.8184    2.7278   22.4150 H   0  0  0  0  0  0  0  0  0  0  0  0
    6.1236    1.4379   20.7007 C   0  0  0  0  0  0  0  0  0  0  0  0
    4.8269    1.7459   20.0124 N   0  0  0  0  0  0  0  0  0  0  0  0
    4.5029    1.0987   18.6987 C   0  0  0  0  0  0  0  0  0  0  0  0
    5.4755    0.1432   18.0731 N   0  0  0  0  0  0  0  0  0  0  0  0
    6.7722   -0.1648   18.7614 C   0  0  0  0  0  0  0  0  0  0  0  0
    7.0962    0.4825   20.0752 N   0  0  0  0  0  0  0  0  0  0  0  0
 30 31  1  0  0  0
 31 29  1  0  0  0
 29 28  1  0  0  0
 28  1  1  0  0  0
  1  2  1  0  0  0
  3  2  1  0  0  0
  3  4  1  0  0  0
  4  5  2  0  0  0
  4  6  1  0  0  0
  6 18  1  0  0  0
 18 19  2  0  0  0
 19 20  1  0  0  0
 20 21  2  0  0  0
 21 22  1  0  0  0
 22 23  2  0  0  0
 23 24  1  0  0  0
 24 25  2  0  0  0
 25 26  1  0  0  0
 26 27  2  0  0  0
  6  7  1  0  0  0
  7  8  1  0  0  0
  8 34  1  0  0  0
 34 35  1  0  0  0
 35 37  1  0  0  0
 37 38  2  0  0  0
 38 39  1  0  0  0
 39 40  2  0  0  0
 40 41  1  0  0  0
 41 42  2  0  0  0
  3  9  1  0  0  0
  9 10  2  0  0  0
 10 11  1  0  0  0
 11 12  1  0  0  0
 11 13  2  0  0  0
 13 14  1  0  0  0
 14 15  2  0  0  0
 15 16  1  0  0  0
 16 17  2  0  0  0
 16  1  1  0  0  0
  8  3  1  0  0  0
 42 37  1  0  0  0
 15  9  1  0  0  0
 27 18  1  0  0  0
 27 22  1  0  0  0
 31 32  1  0  0  0
 31 33  1  0  0  0
 35 36  1  0  0  0
M  CHG 1  31   1
M  END
> <minimizedAffinity>
-8.80251

> <CNNscore>
0.2401952893

> <CNNaffinity>
7.0279984474

> <CNN_VS>
1.6880921125

> <CNNaffinity_variance>
0.1915716380

$$$$



 42 47  0  0  0  0  0  0  0  0999 V2000
    6.8124   -3.5510   23.1429 N   0  0  0  0  0  0  0  0  0  0  0  0
    7.0824   -2.1764   22.6069 C   0  0  0  0  0  0  0  0  0  0  0  0
    8.3027   -1.4250   23.0498 C   0  0  0  0  0  0  0  0  0  0  0  0
    9.4753   -0.5571   23.3988 C   0  0  0  0  0  0  0  0  0  0  0  0
   10.4728   -0.5750   24.0924 O   0  0  0  0  0  0  0  0  0  0  0  0
    9.3448    0.7274   22.6353 N   0  0  0  0  0  0  0  0  0  0  0  0
    8.0916    0.6535   21.8145 C   0  0  0  0  0  0  0  0  0  0  0  0
    7.4475   -0.6767   22.0706 C   0  0  0  0  0  0  0  0  0  0  0  0
    9.2532   -2.0483   24.0287 C   0  0  0  0  0  0  0  0  0  0  0  0
   10.4735   -1.2969   24.4716 C   0  0  0  0  0  0  0  0  0  0  0  0
   11.4238   -1.9203   25.4504 C   0  0  0  0  0  0  0  0  0  0  0  0
   12.6443   -1.1689   25.8934 Cl  0  0  0  0  0  0  0  0  0  0  0  0
   11.1538   -3.2950   25.9865 C   0  0  0  0  0  0  0  0  0  0  0  0
    9.9335   -4.0463   25.5436 C   0  0  0  0  0  0  0  0  0  0  0  0
    8.9832   -3.4230   24.5647 C   0  0  0  0  0  0  0  0  0  0  0  0
    7.7627   -4.1744   24.1218 C   0  0  0  0  0  0  0  0  0  0  0  0
    7.4927   -5.5491   24.6578 O   0  0  0  0  0  0  0  0  0  0  0  0
   10.3000    1.8830   22.6842 C   0  0  0  0  0  0  0  0  0  0  0  0
   11.7715    1.6475   22.5137 C   0  0  0  0  0  0  0  0  0  0  0  0
   12.7266    2.8031   22.5626 N   0  0  0  0  0  0  0  0  0  0  0  0
   12.2102    4.1942   22.7819 C   0  0  0  0  0  0  0  0  0  0  0  0
   10.7386    4.4297   22.9524 C   0  0  0  0  0  0  0  0  0  0  0  0
   10.2221    5.8208   23.1718 C   0  0  0  0  0  0  0  0  0  0  0  0
    8.7506    6.0562   23.3423 C   0  0  0  0  0  0  0  0  0  0  0  0
    7.7954    4.9007   23.2934 C   0  0  0  0  0  0  0  0  0  0  0  0
    8.3119    3.5096   23.0741 C   0  0  0  0  0  0  0  0  0  0  0  0
    9.7835    3.2741   22.9036 C   0  0  0  0  0  0  0  0  0  0  0  0
    5.5920   -4.3024   22.7000 C   0  0  0  0  0  0  0  0  0  0  0  0
    5.7295   -5.6728   22.1057 C   0  0  0  0  0  0  0  0  0  0  0  0
    3.4254   -6.4344   23.0335 C   0  0  0  0  0  0  0  0  0  0  0  0
    4.7964   -6.7695   22.5256 N   0  0  0  0  0  0  0  0  0  0  0  0
    5.0942   -7.7432   22.4657 H   0  0  0  0  0  0  0  0  0  0  0  0
    5.7287   -6.9974   22.1802 H   0  0  0  0  0  0  0  0  0  0  0  0
    6.1721   -1.1718   21.4556 C   0  0  0  0  0  0  0  0  0  0  0  0
    5.6636   -0.5566   20.1856 N   0  0  0  0  0  0  0  0  0  0  0  0
    6.0243   -0.8498   19.3178 H   0  0  0  0  0  0  0  0  0  0  0  0
    4.6055    0.5054   20.2379 C   0  0  0  0  0  0  0  0  0  0  0  0
    4.1838    1.2064   18.9807 N   0  0  0  0  0  0  0  0  0  0  0  0
    3.1258    2.2683   19.0329 C   0  0  0  0  0  0  0  0  0  0  0  0
    2.4894    2.6294   20.3424 N   0  0  0  0  0  0  0  0  0  0  0  0
    2.9112    1.9283   21.5996 C   0  0  0  0  0  0  0  0  0  0  0  0
    3.9692    0.8664   21.5474 N   0  0  0  0  0  0  0  0  0  0  0  0
 30 31  1  0  0  0
 31 29  1  0  0  0
 29 28  1  0  0  0
 28  1  1  0  0  0
  1  2  1  0  0  0
  3  2  1  0  0  0
  3  4  1  0  0  0
  4  5  2  0  0  0
  4  6  1  0  0  0
  6 18  1  0  0  0
 18 19  2  0  0  0
 19 20  1  0  0  0
 20 21  2  0  0  0
 21 22  1  0  0  0
 22 23  2  0  0  0
 23 24  1  0  0  0
 24 25  2  0  0  0
 25 26  1  0  0  0
 26 27  2  0  0  0
  6  7  1  0  0  0
  7  8  1  0  0  0
  8 34  1  0  0  0
 34 35  1  0  0  0
 35 37  1  0  0  0
 37 38  2  0  0  0
 38 39  1  0  0  0
 39 40  2  0  0  0
 40 41  1  0  0  0
 41 42  2  0  0  0
  3  9  1  0  0  0
  9 10  2  0  0  0
 10 11  1  0  0  0
 11 12  1  0  0  0
 11 13  2  0  0  0
 13 14  1  0  0  0
 14 15  2  0  0  0
 15 16  1  0  0  0
 16 17  2  0  0  0
 16  1  1  0  0  0
  8  3  1  0  0  0
 42 37  1  0  0  0
 15  9  1  0  0  0
 27 18  1  0  0  0
 27 22  1  0  0  0
 31 32  1  0  0  0
 31 33  1  0  0  0
 35 36  1  0  0  0
M  CHG 1  31   1
M  END
> <minimizedAffinity>
-8.47190

> <CNNscore>
0.2055716962

> <CNNaffinity>
6.7903366089

> <CNN_VS>
1.3959009647

> <CNNaffinity_variance>
0.1556245983

$$$$



 42 47  0  0  0  0  0  0  0  0999 V2000
   10.9509   -1.4672   25.0786 N   0  0  0  0  0  0  0  0  0  0  0  0
   10.4622   -0.5112   24.0311 C   0  0  0  0  0  0  0  0  0  0  0  0
    9.2520   -0.8502   23.2123 C   0  0  0  0  0  0  0  0  0  0  0  0
    8.0625   -1.0515   22.3210 C   0  0  0  0  0  0  0  0  0  0  0  0
    7.1889   -1.8679   22.1048 O   0  0  0  0  0  0  0  0  0  0  0  0
    7.9423    0.1492   21.4300 N   0  0  0  0  0  0  0  0  0  0  0  0
    9.0576    1.0927   21.7707 C   0  0  0  0  0  0  0  0  0  0  0  0
    9.8670    0.4750   22.8723 C   0  0  0  0  0  0  0  0  0  0  0  0
    8.5305   -2.1453   23.4410 C   0  0  0  0  0  0  0  0  0  0  0  0
    7.3203   -2.4843   22.6222 C   0  0  0  0  0  0  0  0  0  0  0  0
    6.5988   -3.7794   22.8509 C   0  0  0  0  0  0  0  0  0  0  0  0
    5.3886   -4.1185   22.0320 Cl  0  0  0  0  0  0  0  0  0  0  0  0
    7.0876   -4.7354   23.8984 C   0  0  0  0  0  0  0  0  0  0  0  0
    8.2977   -4.3963   24.7172 C   0  0  0  0  0  0  0  0  0  0  0  0
    9.0192   -3.1013   24.4885 C   0  0  0  0  0  0  0  0  0  0  0  0
   10.2294   -2.7622   25.3073 C   0  0  0  0  0  0  0  0  0  0  0  0
   10.7182   -3.7182   26.3548 O   0  0  0  0  0  0  0  0  0  0  0  0
    6.8914    0.3681   20.3823 C   0  0  0  0  0  0  0  0  0  0  0  0
    6.9872   -0.3414   19.0642 C   0  0  0  0  0  0  0  0  0  0  0  0
    5.9363   -0.1225   18.0165 N   0  0  0  0  0  0  0  0  0  0  0  0
    4.7895    0.8057   18.2870 C   0  0  0  0  0  0  0  0  0  0  0  0
    4.6937    1.5152   19.6051 C   0  0  0  0  0  0  0  0  0  0  0  0
    3.5468    2.4435   19.8756 C   0  0  0  0  0  0  0  0  0  0  0  0
    3.4511    3.1529   21.1938 C   0  0  0  0  0  0  0  0  0  0  0  0
    4.5020    2.9341   22.2415 C   0  0  0  0  0  0  0  0  0  0  0  0
    5.6488    2.0058   21.9710 C   0  0  0  0  0  0  0  0  0  0  0  0
    5.7446    1.2963   20.6528 C   0  0  0  0  0  0  0  0  0  0  0  0
   12.1611   -1.1281   25.8974 C   0  0  0  0  0  0  0  0  0  0  0  0
   13.4453   -1.8727   25.6817 C   0  0  0  0  0  0  0  0  0  0  0  0
   13.3237   -1.7778   23.0883 C   0  0  0  0  0  0  0  0  0  0  0  0
   13.7430   -2.4827   24.3441 N   0  0  0  0  0  0  0  0  0  0  0  0
   14.2305   -3.3769   24.2885 H   0  0  0  0  0  0  0  0  0  0  0  0
   14.0281   -2.9621   25.1981 H   0  0  0  0  0  0  0  0  0  0  0  0
   11.0787    1.0769   23.5200 C   0  0  0  0  0  0  0  0  0  0  0  0
   11.9514    2.0207   22.7472 N   0  0  0  0  0  0  0  0  0  0  0  0
   12.7644    1.6876   22.3030 H   0  0  0  0  0  0  0  0  0  0  0  0
   11.5856    3.4723   22.6510 C   0  0  0  0  0  0  0  0  0  0  0  0
   10.2521    3.9443   23.1501 N   0  0  0  0  0  0  0  0  0  0  0  0
    9.8863    5.3957   23.0539 C   0  0  0  0  0  0  0  0  0  0  0  0
   10.8539    6.3753   22.4587 N   0  0  0  0  0  0  0  0  0  0  0  0
   12.1873    5.9033   21.9597 C   0  0  0  0  0  0  0  0  0  0  0  0
   12.5532    4.4518   22.0558 N   0  0  0  0  0  0  0  0  0  0  0  0
 30 31  1  0  0  0
 31 29  1  0  0  0
 29 28  1  0  0  0
 28  1  1  0  0  0
  1  2  1  0  0  0
  3  2  1  0  0  0
  3  4  1  0  0  0
  4  5  2  0  0  0
  4  6  1  0  0  0
  6 18  1  0  0  0
 18 19  2  0  0  0
 19 20  1  0  0  0
 20 21  2  0  0  0
 21 22  1  0  0  0
 22 23  2  0  0  0
 23 24  1  0  0  0
 24 25  2  0  0  0
 25 26  1  0  0  0
 26 27  2  0  0  0
  6  7  1  0  0  0
  7  8  1  0  0  0
  8 34  1  0  0  0
 34 35  1  0  0  0
 35 37  1  0  0  0
 37 38  2  0  0  0
 38 39  1  0  0  0
 39 40  2  0  0  0
 40 41  1  0  0  0
 41 42  2  0  0  0
  3  9  1  0  0  0
  9 10  2  0  0  0
 10 11  1  0  0  0
 11 12  1  0  0  0
 11 13  2  0  0  0
 13 14  1  0  0  0
 14 15  2  0  0  0
 15 16  1  0  0  0
 16 17  2  0  0  0
 16  1  1  0  0  0
  8  3  1  0  0  0
 42 37  1  0  0  0
 15  9  1  0  0  0
 27 18  1  0  0  0
 27 22  1  0  0  0
 31 32  1  0  0  0
 31 33  1  0  0  0
 35 36  1  0  0  0
M  CHG 1  31   1
M  END
> <minimizedAffinity>
-9.22667

> <CNNscore>
0.1716997176

> <CNNaffinity>
6.9000597000

> <CNN_VS>
1.1847382784

> <CNNaffinity_variance>
0.5081362128

$$$$



 42 47  0  0  0  0  0  0  0  0999 V2000
   10.6643    0.8697   23.4483 N   0  0  0  0  0  0  0  0  0  0  0  0
    9.2673    0.5805   23.9119 C   0  0  0  0  0  0  0  0  0  0  0  0
    9.0035   -0.5879   24.8148 C   0  0  0  0  0  0  0  0  0  0  0  0
    8.5885   -1.7143   25.7143 C   0  0  0  0  0  0  0  0  0  0  0  0
    9.0730   -2.6532   26.3143 O   0  0  0  0  0  0  0  0  0  0  0  0
    7.1048   -1.6240   25.9157 N   0  0  0  0  0  0  0  0  0  0  0  0
    6.6029   -0.4419   25.1408 C   0  0  0  0  0  0  0  0  0  0  0  0
    7.7764    0.1985   24.4604 C   0  0  0  0  0  0  0  0  0  0  0  0
   10.1367   -1.4671   25.2542 C   0  0  0  0  0  0  0  0  0  0  0  0
    9.8729   -2.6355   26.1571 C   0  0  0  0  0  0  0  0  0  0  0  0
   11.0061   -3.5147   26.5964 C   0  0  0  0  0  0  0  0  0  0  0  0
   10.7423   -4.6831   27.4993 Cl  0  0  0  0  0  0  0  0  0  0  0  0
   12.4030   -3.2254   26.1328 C   0  0  0  0  0  0  0  0  0  0  0  0
   12.6668   -2.0571   25.2299 C   0  0  0  0  0  0  0  0  0  0  0  0
   11.5337   -1.1779   24.7906 C   0  0  0  0  0  0  0  0  0  0  0  0
   11.7974   -0.0095   23.8876 C   0  0  0  0  0  0  0  0  0  0  0  0
   13.1944    0.2797   23.4240 O   0  0  0  0  0  0  0  0  0  0  0  0
    6.2697   -2.5529   26.7463 C   0  0  0  0  0  0  0  0  0  0  0  0
    6.0109   -2.2402   28.1903 C   0  0  0  0  0  0  0  0  0  0  0  0
    5.1758   -3.1690   29.0209 N   0  0  0  0  0  0  0  0  0  0  0  0
    4.5996   -4.4106   28.4074 C   0  0  0  0  0  0  0  0  0  0  0  0
    4.8584   -4.7233   26.9634 C   0  0  0  0  0  0  0  0  0  0  0  0
    4.2821   -5.9650   26.3499 C   0  0  0  0  0  0  0  0  0  0  0  0
    4.5410   -6.2776   24.9059 C   0  0  0  0  0  0  0  0  0  0  0  0
    5.3760   -5.3488   24.0753 C   0  0  0  0  0  0  0  0  0  0  0  0
    5.9523   -4.1072   24.6888 C   0  0  0  0  0  0  0  0  0  0  0  0
    5.6935   -3.7945   26.1328 C   0  0  0  0  0  0  0  0  0  0  0  0
   10.9280    2.0381   22.5454 C   0  0  0  0  0  0  0  0  0  0  0  0
   11.5465    3.2881   23.0977 C   0  0  0  0  0  0  0  0  0  0  0  0
   11.6537    5.7171   22.1819 C   0  0  0  0  0  0  0  0  0  0  0  0
   12.1480    4.3009   22.1689 N   0  0  0  0  0  0  0  0  0  0  0  0
   12.8930    4.0266   21.5286 H   0  0  0  0  0  0  0  0  0  0  0  0
   12.4840    3.3379   22.1601 H   0  0  0  0  0  0  0  0  0  0  0  0
    7.7306    1.4122   23.5801 C   0  0  0  0  0  0  0  0  0  0  0  0
    6.6580    2.4418   23.7775 N   0  0  0  0  0  0  0  0  0  0  0  0
    5.7145    2.2051   23.6254 H   0  0  0  0  0  0  0  0  0  0  0  0
    7.0227    3.8322   24.2064 C   0  0  0  0  0  0  0  0  0  0  0  0
    7.8085    4.7190   23.2866 N   0  0  0  0  0  0  0  0  0  0  0  0
    8.1732    6.1092   23.7155 C   0  0  0  0  0  0  0  0  0  0  0  0
    7.7520    6.6129   25.0642 N   0  0  0  0  0  0  0  0  0  0  0  0
    6.9661    5.7261   25.9840 C   0  0  0  0  0  0  0  0  0  0  0  0
    6.6014    4.3357   25.5551 N   0  0  0  0  0  0  0  0  0  0  0  0
 30 31  1  0  0  0
 31 29  1  0  0  0
 29 28  1  0  0  0
 28  1  1  0  0  0
  1  2  1  0  0  0
  3  2  1  0  0  0
  3  4  1  0  0  0
  4  5  2  0  0  0
  4  6  1  0  0  0
  6 18  1  0  0  0
 18 19  2  0  0  0
 19 20  1  0  0  0
 20 21  2  0  0  0
 21 22  1  0  0  0
 22 23  2  0  0  0
 23 24  1  0  0  0
 24 25  2  0  0  0
 25 26  1  0  0  0
 26 27  2  0  0  0
  6  7  1  0  0  0
  7  8  1  0  0  0
  8 34  1  0  0  0
 34 35  1  0  0  0
 35 37  1  0  0  0
 37 38  2  0  0  0
 38 39  1  0  0  0
 39 40  2  0  0  0
 40 41  1  0  0  0
 41 42  2  0  0  0
  3  9  1  0  0  0
  9 10  2  0  0  0
 10 11  1  0  0  0
 11 12  1  0  0  0
 11 13  2  0  0  0
 13 14  1  0  0  0
 14 15  2  0  0  0
 15 16  1  0  0  0
 16 17  2  0  0  0
 16  1  1  0  0  0
  8  3  1  0  0  0
 42 37  1  0  0  0
 15  9  1  0  0  0
 27 18  1  0  0  0
 27 22  1  0  0  0
 31 32  1  0  0  0
 31 33  1  0  0  0
 35 36  1  0  0  0
M  CHG 1  31   1
M  END
> <minimizedAffinity>
-7.63483

> <CNNscore>
0.1498325318

> <CNNaffinity>
6.3983621597

> <CNN_VS>
0.9586827755

> <CNNaffinity_variance>
0.6629639864

$$$$



 42 47  0  0  0  0  0  0  0  0999 V2000
   10.8231    1.8944   22.9267 N   0  0  0  0  0  0  0  0  0  0  0  0
    9.3918    1.9139   23.3751 C   0  0  0  0  0  0  0  0  0  0  0  0
    8.8630    0.8113   24.2437 C   0  0  0  0  0  0  0  0  0  0  0  0
    8.1962   -0.2164   25.1092 C   0  0  0  0  0  0  0  0  0  0  0  0
    8.4513   -1.2554   25.6852 O   0  0  0  0  0  0  0  0  0  0  0  0
    6.7683    0.1990   25.3057 N   0  0  0  0  0  0  0  0  0  0  0  0
    6.5526    1.4834   24.5616 C   0  0  0  0  0  0  0  0  0  0  0  0
    7.8472    1.8618   23.9052 C   0  0  0  0  0  0  0  0  0  0  0  0
    9.7654   -0.3108   24.6639 C   0  0  0  0  0  0  0  0  0  0  0  0
    9.2365   -1.4134   25.5325 C   0  0  0  0  0  0  0  0  0  0  0  0
   10.1390   -2.5355   25.9528 C   0  0  0  0  0  0  0  0  0  0  0  0
    9.6101   -3.6382   26.8214 Cl  0  0  0  0  0  0  0  0  0  0  0  0
   11.5702   -2.5549   25.5044 C   0  0  0  0  0  0  0  0  0  0  0  0
   12.0991   -1.4523   24.6358 C   0  0  0  0  0  0  0  0  0  0  0  0
   11.1967   -0.3303   24.2155 C   0  0  0  0  0  0  0  0  0  0  0  0
   11.7255    0.7724   23.3469 C   0  0  0  0  0  0  0  0  0  0  0  0
   13.1568    0.7530   22.8985 O   0  0  0  0  0  0  0  0  0  0  0  0
    5.7371   -0.5403   26.1059 C   0  0  0  0  0  0  0  0  0  0  0  0
    4.9860   -1.6826   25.4886 C   0  0  0  0  0  0  0  0  0  0  0  0
    3.9549   -2.4218   26.2887 N   0  0  0  0  0  0  0  0  0  0  0  0
    3.6749   -2.0188   27.7062 C   0  0  0  0  0  0  0  0  0  0  0  0
    4.4260   -0.8766   28.3235 C   0  0  0  0  0  0  0  0  0  0  0  0
    4.1460   -0.4736   29.7410 C   0  0  0  0  0  0  0  0  0  0  0  0
    4.8972    0.6687   30.3582 C   0  0  0  0  0  0  0  0  0  0  0  0
    5.9283    1.4080   29.5581 C   0  0  0  0  0  0  0  0  0  0  0  0
    6.2083    1.0050   28.1406 C   0  0  0  0  0  0  0  0  0  0  0  0
    5.4571   -0.1373   27.5233 C   0  0  0  0  0  0  0  0  0  0  0  0
   11.3520    2.9971   22.0580 C   0  0  0  0  0  0  0  0  0  0  0  0
   12.2006    4.0805   22.6548 C   0  0  0  0  0  0  0  0  0  0  0  0
   10.5088    6.0194   23.0134 C   0  0  0  0  0  0  0  0  0  0  0  0
   11.5793    5.1142   23.5467 N   0  0  0  0  0  0  0  0  0  0  0  0
   11.8849    5.2015   24.5160 H   0  0  0  0  0  0  0  0  0  0  0  0
   12.3073    4.4986   23.9095 H   0  0  0  0  0  0  0  0  0  0  0  0
    8.0843    3.0774   23.0590 C   0  0  0  0  0  0  0  0  0  0  0  0
    7.2481    3.3151   21.8367 N   0  0  0  0  0  0  0  0  0  0  0  0
    7.1575    4.2249   21.4716 H   0  0  0  0  0  0  0  0  0  0  0  0
    6.5499    2.1667   21.1705 C   0  0  0  0  0  0  0  0  0  0  0  0
    7.3426    1.1497   20.4041 N   0  0  0  0  0  0  0  0  0  0  0  0
    6.6445    0.0014   19.7380 C   0  0  0  0  0  0  0  0  0  0  0  0
    5.1535   -0.1301   19.8382 N   0  0  0  0  0  0  0  0  0  0  0  0
    4.3609    0.8869   20.6047 C   0  0  0  0  0  0  0  0  0  0  0  0
    5.0591    2.0353   21.2708 N   0  0  0  0  0  0  0  0  0  0  0  0
 30 31  1  0  0  0
 31 29  1  0  0  0
 29 28  1  0  0  0
 28  1  1  0  0  0
  1  2  1  0  0  0
  3  2  1  0  0  0
  3  4  1  0  0  0
  4  5  2  0  0  0
  4  6  1  0  0  0
  6 18  1  0  0  0
 18 19  2  0  0  0
 19 20  1  0  0  0
 20 21  2  0  0  0
 21 22  1  0  0  0
 22 23  2  0  0  0
 23 24  1  0  0  0
 24 25  2  0  0  0
 25 26  1  0  0  0
 26 27  2  0  0  0
  6  7  1  0  0  0
  7  8  1  0  0  0
  8 34  1  0  0  0
 34 35  1  0  0  0
 35 37  1  0  0  0
 37 38  2  0  0  0
 38 39  1  0  0  0
 39 40  2  0  0  0
 40 41  1  0  0  0
 41 42  2  0  0  0
  3  9  1  0  0  0
  9 10  2  0  0  0
 10 11  1  0  0  0
 11 12  1  0  0  0
 11 13  2  0  0  0
 13 14  1  0  0  0
 14 15  2  0  0  0
 15 16  1  0  0  0
 16 17  2  0  0  0
 16  1  1  0  0  0
  8  3  1  0  0  0
 42 37  1  0  0  0
 15  9  1  0  0  0
 27 18  1  0  0  0
 27 22  1  0  0  0
 31 32  1  0  0  0
 31 33  1  0  0  0
 35 36  1  0  0  0
M  CHG 1  31   1
M  END
> <minimizedAffinity>
-8.03471

> <CNNscore>
0.1487925053

> <CNNaffinity>
6.5454587936

> <CNN_VS>
0.9739152193

> <CNNaffinity_variance>
0.2428503931

$$$$
