


 42 47  0  0  0  0  0  0  0  0999 V2000
   -7.1065   -1.0432  -23.3382 N   0  0  0  0  0  0  0  0  0  0  0  0
   -7.5414    0.3845  -23.4882 C   0  0  0  0  0  0  0  0  0  0  0  0
   -9.0014    0.7285  -23.4808 C   0  0  0  0  0  0  0  0  0  0  0  0
  -10.4178    1.2222  -23.4919 C   0  0  0  0  0  0  0  0  0  0  0  0
  -11.5526    0.7965  -23.4064 O   0  0  0  0  0  0  0  0  0  0  0  0
  -10.3881    2.7120  -23.6641 N   0  0  0  0  0  0  0  0  0  0  0  0
   -8.9533    3.1391  -23.7594 C   0  0  0  0  0  0  0  0  0  0  0  0
   -8.0963    1.9132  -23.6461 C   0  0  0  0  0  0  0  0  0  0  0  0
  -10.0265   -0.3552  -23.3232 C   0  0  0  0  0  0  0  0  0  0  0  0
  -11.4865   -0.0112  -23.3157 C   0  0  0  0  0  0  0  0  0  0  0  0
  -12.5115   -1.0949  -23.1582 C   0  0  0  0  0  0  0  0  0  0  0  0
  -13.9716   -0.7509  -23.1507 Cl  0  0  0  0  0  0  0  0  0  0  0  0
  -12.0766   -2.5226  -23.0081 C   0  0  0  0  0  0  0  0  0  0  0  0
  -10.6166   -2.8666  -23.0155 C   0  0  0  0  0  0  0  0  0  0  0  0
   -9.5916   -1.7829  -23.1731 C   0  0  0  0  0  0  0  0  0  0  0  0
   -8.1315   -2.1269  -23.1806 C   0  0  0  0  0  0  0  0  0  0  0  0
   -7.6966   -3.5546  -23.0305 O   0  0  0  0  0  0  0  0  0  0  0  0
  -11.5833    3.6160  -23.7295 C   0  0  0  0  0  0  0  0  0  0  0  0
  -12.4636    3.7837  -22.5266 C   0  0  0  0  0  0  0  0  0  0  0  0
  -13.6588    4.6877  -22.5920 N   0  0  0  0  0  0  0  0  0  0  0  0
  -13.9737    5.4240  -23.8603 C   0  0  0  0  0  0  0  0  0  0  0  0
  -13.0934    5.2563  -25.0633 C   0  0  0  0  0  0  0  0  0  0  0  0
  -13.4084    5.9926  -26.3316 C   0  0  0  0  0  0  0  0  0  0  0  0
  -12.5280    5.8248  -27.5345 C   0  0  0  0  0  0  0  0  0  0  0  0
  -11.3328    4.9208  -27.4691 C   0  0  0  0  0  0  0  0  0  0  0  0
  -11.0179    4.1846  -26.2008 C   0  0  0  0  0  0  0  0  0  0  0  0
  -11.8982    4.3523  -24.9978 C   0  0  0  0  0  0  0  0  0  0  0  0
   -5.6464   -1.3872  -23.3456 C   0  0  0  0  0  0  0  0  0  0  0  0
   -4.8565   -1.2772  -24.6160 C   0  0  0  0  0  0  0  0  0  0  0  0
   -5.7489   -3.2589  -26.0395 C   0  0  0  0  0  0  0  0  0  0  0  0
   -4.5992   -2.4989  -25.4474 N   0  0  0  0  0  0  0  0  0  0  0  0
   -3.6425   -2.8128  -25.6101 H   0  0  0  0  0  0  0  0  0  0  0  0
   -3.8174   -1.9821  -25.0448 H   0  0  0  0  0  0  0  0  0  0  0  0
   -6.5974    1.8782  -23.6903 C   0  0  0  0  0  0  0  0  0  0  0  0
   -5.8024    2.9835  -23.0610 N   0  0  0  0  0  0  0  0  0  0  0  0
   -5.8910    3.9054  -23.3950 H   0  0  0  0  0  0  0  0  0  0  0  0
   -4.8725    2.6844  -21.9227 C   0  0  0  0  0  0  0  0  0  0  0  0
   -3.6288    3.5018  -21.7356 N   0  0  0  0  0  0  0  0  0  0  0  0
   -2.6988    3.2028  -20.5974 C   0  0  0  0  0  0  0  0  0  0  0  0
   -3.0125    2.0862  -19.6461 N   0  0  0  0  0  0  0  0  0  0  0  0
   -4.2563    1.2688  -19.8331 C   0  0  0  0  0  0  0  0  0  0  0  0
   -5.1862    1.5679  -20.9714 N   0  0  0  0  0  0  0  0  0  0  0  0
 30 31  1  0  0  0
 31 29  1  0  0  0
 29 28  1  0  0  0
 28  1  1  0  0  0
  1  2  1  0  0  0
  3  2  1  0  0  0
  3  4  1  0  0  0
  4  5  2  0  0  0
  4  6  1  0  0  0
  6 18  1  0  0  0
 18 19  2  0  0  0
 19 20  1  0  0  0
 20 21  2  0  0  0
 21 22  1  0  0  0
 22 23  2  0  0  0
 23 24  1  0  0  0
 24 25  2  0  0  0
 25 26  1  0  0  0
 26 27  2  0  0  0
  6  7  1  0  0  0
  7  8  1  0  0  0
  8 34  1  0  0  0
 34 35  1  0  0  0
 35 37  1  0  0  0
 37 38  2  0  0  0
 38 39  1  0  0  0
 39 40  2  0  0  0
 40 41  1  0  0  0
 41 42  2  0  0  0
  3  9  1  0  0  0
  9 10  2  0  0  0
 10 11  1  0  0  0
 11 12  1  0  0  0
 11 13  2  0  0  0
 13 14  1  0  0  0
 14 15  2  0  0  0
 15 16  1  0  0  0
 16 17  2  0  0  0
 16  1  1  0  0  0
  8  3  1  0  0  0
 42 37  1  0  0  0
 15  9  1  0  0  0
 27 18  1  0  0  0
 27 22  1  0  0  0
 31 32  1  0  0  0
 31 33  1  0  0  0
 35 36  1  0  0  0
M  CHG 1  31   1
M  END
> <minimizedAffinity>
-7.54471

> <CNNscore>
0.6293796897

> <CNNaffinity>
6.8402504921

> <CNN_VS>
4.3051147461

> <CNNaffinity_variance>
0.1290457696

$$$$



 42 47  0  0  0  0  0  0  0  0999 V2000
   -7.0730   -0.8541  -22.9185 N   0  0  0  0  0  0  0  0  0  0  0  0
   -7.5187    0.5576  -23.1602 C   0  0  0  0  0  0  0  0  0  0  0  0
   -8.9799    0.8714  -23.2874 C   0  0  0  0  0  0  0  0  0  0  0  0
  -10.3988    1.3349  -23.4354 C   0  0  0  0  0  0  0  0  0  0  0  0
  -11.5292    0.8894  -23.4276 O   0  0  0  0  0  0  0  0  0  0  0  0
  -10.3808    2.8175  -23.6631 N   0  0  0  0  0  0  0  0  0  0  0  0
   -8.9508    3.2702  -23.6558 C   0  0  0  0  0  0  0  0  0  0  0  0
   -8.0850    2.0675  -23.4236 C   0  0  0  0  0  0  0  0  0  0  0  0
   -9.9956   -0.2265  -23.1728 C   0  0  0  0  0  0  0  0  0  0  0  0
  -11.4568    0.0872  -23.3000 C   0  0  0  0  0  0  0  0  0  0  0  0
  -12.4724   -1.0107  -23.1854 C   0  0  0  0  0  0  0  0  0  0  0  0
  -13.9337   -0.6969  -23.3126 Cl  0  0  0  0  0  0  0  0  0  0  0  0
  -12.0267   -2.4224  -22.9436 C   0  0  0  0  0  0  0  0  0  0  0  0
  -10.5654   -2.7362  -22.8165 C   0  0  0  0  0  0  0  0  0  0  0  0
   -9.5499   -1.6382  -22.9310 C   0  0  0  0  0  0  0  0  0  0  0  0
   -8.0885   -1.9520  -22.8039 C   0  0  0  0  0  0  0  0  0  0  0  0
   -7.6428   -3.3637  -22.5621 O   0  0  0  0  0  0  0  0  0  0  0  0
  -11.5819    3.6934  -23.8629 C   0  0  0  0  0  0  0  0  0  0  0  0
  -12.5283    3.9397  -22.7254 C   0  0  0  0  0  0  0  0  0  0  0  0
  -13.7294    4.8156  -22.9253 N   0  0  0  0  0  0  0  0  0  0  0  0
  -13.9842    5.4453  -24.2626 C   0  0  0  0  0  0  0  0  0  0  0  0
  -13.0379    5.1991  -25.4001 C   0  0  0  0  0  0  0  0  0  0  0  0
  -13.2928    5.8288  -26.7375 C   0  0  0  0  0  0  0  0  0  0  0  0
  -12.3464    5.5825  -27.8749 C   0  0  0  0  0  0  0  0  0  0  0  0
  -11.1452    4.7066  -27.6751 C   0  0  0  0  0  0  0  0  0  0  0  0
  -10.8904    4.0769  -26.3377 C   0  0  0  0  0  0  0  0  0  0  0  0
  -11.8367    4.3231  -25.2002 C   0  0  0  0  0  0  0  0  0  0  0  0
   -5.6116   -1.1678  -22.7913 C   0  0  0  0  0  0  0  0  0  0  0  0
   -4.9983   -1.3466  -21.4341 C   0  0  0  0  0  0  0  0  0  0  0  0
   -6.5101   -0.7976  -19.3938 C   0  0  0  0  0  0  0  0  0  0  0  0
   -5.8440   -1.8051  -20.2834 N   0  0  0  0  0  0  0  0  0  0  0  0
   -5.9663   -2.8021  -20.1057 H   0  0  0  0  0  0  0  0  0  0  0  0
   -5.3911   -2.4903  -20.8882 H   0  0  0  0  0  0  0  0  0  0  0  0
   -6.5872    2.0618  -23.3420 C   0  0  0  0  0  0  0  0  0  0  0  0
   -5.8960    2.7373  -22.1949 N   0  0  0  0  0  0  0  0  0  0  0  0
   -6.3101    3.5184  -21.7618 H   0  0  0  0  0  0  0  0  0  0  0  0
   -4.5740    2.2226  -21.7077 C   0  0  0  0  0  0  0  0  0  0  0  0
   -3.4927    1.8839  -22.6905 N   0  0  0  0  0  0  0  0  0  0  0  0
   -2.1707    1.3694  -22.2034 C   0  0  0  0  0  0  0  0  0  0  0  0
   -1.9299    1.1934  -20.7333 N   0  0  0  0  0  0  0  0  0  0  0  0
   -3.0112    1.5321  -19.7504 C   0  0  0  0  0  0  0  0  0  0  0  0
   -4.3333    2.0467  -20.2376 N   0  0  0  0  0  0  0  0  0  0  0  0
 30 31  1  0  0  0
 31 29  1  0  0  0
 29 28  1  0  0  0
 28  1  1  0  0  0
  1  2  1  0  0  0
  3  2  1  0  0  0
  3  4  1  0  0  0
  4  5  2  0  0  0
  4  6  1  0  0  0
  6 18  1  0  0  0
 18 19  2  0  0  0
 19 20  1  0  0  0
 20 21  2  0  0  0
 21 22  1  0  0  0
 22 23  2  0  0  0
 23 24  1  0  0  0
 24 25  2  0  0  0
 25 26  1  0  0  0
 26 27  2  0  0  0
  6  7  1  0  0  0
  7  8  1  0  0  0
  8 34  1  0  0  0
 34 35  1  0  0  0
 35 37  1  0  0  0
 37 38  2  0  0  0
 38 39  1  0  0  0
 39 40  2  0  0  0
 40 41  1  0  0  0
 41 42  2  0  0  0
  3  9  1  0  0  0
  9 10  2  0  0  0
 10 11  1  0  0  0
 11 12  1  0  0  0
 11 13  2  0  0  0
 13 14  1  0  0  0
 14 15  2  0  0  0
 15 16  1  0  0  0
 16 17  2  0  0  0
 16  1  1  0  0  0
  8  3  1  0  0  0
 42 37  1  0  0  0
 15  9  1  0  0  0
 27 18  1  0  0  0
 27 22  1  0  0  0
 31 32  1  0  0  0
 31 33  1  0  0  0
 35 36  1  0  0  0
M  CHG 1  31   1
M  END
> <minimizedAffinity>
-7.82109

> <CNNscore>
0.5011563897

> <CNNaffinity>
6.8334321976

> <CNN_VS>
3.4246182442

> <CNNaffinity_variance>
0.1402996927

$$$$



 42 47  0  0  0  0  0  0  0  0999 V2000
   -5.3966   -6.0647  -23.3957 N   0  0  0  0  0  0  0  0  0  0  0  0
   -5.9806   -4.7863  -22.8717 C   0  0  0  0  0  0  0  0  0  0  0  0
   -7.0297   -4.0617  -23.6618 C   0  0  0  0  0  0  0  0  0  0  0  0
   -8.0802   -3.2304  -24.3366 C   0  0  0  0  0  0  0  0  0  0  0  0
   -8.7537   -3.2230  -25.3479 O   0  0  0  0  0  0  0  0  0  0  0  0
   -8.3655   -2.0450  -23.4628 N   0  0  0  0  0  0  0  0  0  0  0  0
   -7.4912   -2.1436  -22.2479 C   0  0  0  0  0  0  0  0  0  0  0  0
   -6.6657   -3.3900  -22.3709 C   0  0  0  0  0  0  0  0  0  0  0  0
   -7.4949   -4.6155  -24.9759 C   0  0  0  0  0  0  0  0  0  0  0  0
   -8.5440   -3.8909  -25.7660 C   0  0  0  0  0  0  0  0  0  0  0  0
   -9.0091   -4.4447  -27.0801 C   0  0  0  0  0  0  0  0  0  0  0  0
  -10.0582   -3.7201  -27.8703 Cl  0  0  0  0  0  0  0  0  0  0  0  0
   -8.4251   -5.7231  -27.6041 C   0  0  0  0  0  0  0  0  0  0  0  0
   -7.3760   -6.4477  -26.8140 C   0  0  0  0  0  0  0  0  0  0  0  0
   -6.9109   -5.8939  -25.4999 C   0  0  0  0  0  0  0  0  0  0  0  0
   -5.8617   -6.6185  -24.7098 C   0  0  0  0  0  0  0  0  0  0  0  0
   -5.2777   -7.8970  -25.2338 O   0  0  0  0  0  0  0  0  0  0  0  0
   -9.3518   -0.9528  -23.7530 C   0  0  0  0  0  0  0  0  0  0  0  0
   -8.8909    0.3239  -24.3915 C   0  0  0  0  0  0  0  0  0  0  0  0
   -9.8772    1.4161  -24.6817 N   0  0  0  0  0  0  0  0  0  0  0  0
  -11.3245    1.2316  -24.3334 C   0  0  0  0  0  0  0  0  0  0  0  0
  -11.7854   -0.0451  -23.6949 C   0  0  0  0  0  0  0  0  0  0  0  0
  -13.2328   -0.2295  -23.3466 C   0  0  0  0  0  0  0  0  0  0  0  0
  -13.6936   -1.5062  -22.7081 C   0  0  0  0  0  0  0  0  0  0  0  0
  -12.7073   -2.5984  -22.4179 C   0  0  0  0  0  0  0  0  0  0  0  0
  -11.2600   -2.4140  -22.7662 C   0  0  0  0  0  0  0  0  0  0  0  0
  -10.7991   -1.1373  -23.4047 C   0  0  0  0  0  0  0  0  0  0  0  0
   -4.3475   -6.7893  -22.6055 C   0  0  0  0  0  0  0  0  0  0  0  0
   -3.0199   -7.1010  -23.2303 C   0  0  0  0  0  0  0  0  0  0  0  0
   -1.3898   -6.8607  -25.2390 C   0  0  0  0  0  0  0  0  0  0  0  0
   -2.5912   -6.3855  -24.4770 N   0  0  0  0  0  0  0  0  0  0  0  0
   -3.1167   -5.5757  -24.8065 H   0  0  0  0  0  0  0  0  0  0  0  0
   -3.4082   -6.0623  -23.9588 H   0  0  0  0  0  0  0  0  0  0  0  0
   -5.6537   -3.8788  -21.3774 C   0  0  0  0  0  0  0  0  0  0  0  0
   -5.7033   -3.3973  -19.9577 N   0  0  0  0  0  0  0  0  0  0  0  0
   -5.9796   -4.0110  -19.2392 H   0  0  0  0  0  0  0  0  0  0  0  0
   -5.3317   -1.9809  -19.6326 C   0  0  0  0  0  0  0  0  0  0  0  0
   -5.6935   -1.3979  -18.2988 N   0  0  0  0  0  0  0  0  0  0  0  0
   -5.3219    0.0185  -17.9737 C   0  0  0  0  0  0  0  0  0  0  0  0
   -4.5885    0.8519  -18.9824 N   0  0  0  0  0  0  0  0  0  0  0  0
   -4.2267    0.2689  -20.3163 C   0  0  0  0  0  0  0  0  0  0  0  0
   -4.5983   -1.1475  -20.6414 N   0  0  0  0  0  0  0  0  0  0  0  0
 30 31  1  0  0  0
 31 29  1  0  0  0
 29 28  1  0  0  0
 28  1  1  0  0  0
  1  2  1  0  0  0
  3  2  1  0  0  0
  3  4  1  0  0  0
  4  5  2  0  0  0
  4  6  1  0  0  0
  6 18  1  0  0  0
 18 19  2  0  0  0
 19 20  1  0  0  0
 20 21  2  0  0  0
 21 22  1  0  0  0
 22 23  2  0  0  0
 23 24  1  0  0  0
 24 25  2  0  0  0
 25 26  1  0  0  0
 26 27  2  0  0  0
  6  7  1  0  0  0
  7  8  1  0  0  0
  8 34  1  0  0  0
 34 35  1  0  0  0
 35 37  1  0  0  0
 37 38  2  0  0  0
 38 39  1  0  0  0
 39 40  2  0  0  0
 40 41  1  0  0  0
 41 42  2  0  0  0
  3  9  1  0  0  0
  9 10  2  0  0  0
 10 11  1  0  0  0
 11 12  1  0  0  0
 11 13  2  0  0  0
 13 14  1  0  0  0
 14 15  2  0  0  0
 15 16  1  0  0  0
 16 17  2  0  0  0
 16  1  1  0  0  0
  8  3  1  0  0  0
 42 37  1  0  0  0
 15  9  1  0  0  0
 27 18  1  0  0  0
 27 22  1  0  0  0
 31 32  1  0  0  0
 31 33  1  0  0  0
 35 36  1  0  0  0
M  CHG 1  31   1
M  END
> <minimizedAffinity>
-7.97048

> <CNNscore>
0.3987856805

> <CNNaffinity>
6.8275780678

> <CNN_VS>
2.7227404118

> <CNNaffinity_variance>
0.1869304776

$$$$



 42 47  0  0  0  0  0  0  0  0999 V2000
   -8.3869   -5.6147  -24.5096 N   0  0  0  0  0  0  0  0  0  0  0  0
   -7.3335   -5.2468  -23.5071 C   0  0  0  0  0  0  0  0  0  0  0  0
   -7.3904   -3.9186  -22.8125 C   0  0  0  0  0  0  0  0  0  0  0  0
   -7.3164   -2.6334  -22.0426 C   0  0  0  0  0  0  0  0  0  0  0  0
   -7.9205   -1.5864  -21.9188 O   0  0  0  0  0  0  0  0  0  0  0  0
   -6.1063   -2.6918  -21.1582 N   0  0  0  0  0  0  0  0  0  0  0  0
   -5.4324   -4.0132  -21.3815 C   0  0  0  0  0  0  0  0  0  0  0  0
   -6.2260   -4.7713  -22.4039 C   0  0  0  0  0  0  0  0  0  0  0  0
   -8.5008   -2.9581  -23.1204 C   0  0  0  0  0  0  0  0  0  0  0  0
   -8.5577   -1.6299  -22.4258 C   0  0  0  0  0  0  0  0  0  0  0  0
   -9.6680   -0.6695  -22.7337 C   0  0  0  0  0  0  0  0  0  0  0  0
   -9.7250    0.6588  -22.0391 Cl  0  0  0  0  0  0  0  0  0  0  0  0
  -10.7214   -1.0374  -23.7362 C   0  0  0  0  0  0  0  0  0  0  0  0
  -10.6645   -2.3657  -24.4308 C   0  0  0  0  0  0  0  0  0  0  0  0
   -9.5542   -3.3260  -24.1229 C   0  0  0  0  0  0  0  0  0  0  0  0
   -9.4972   -4.6543  -24.8175 C   0  0  0  0  0  0  0  0  0  0  0  0
  -10.5507   -5.0222  -25.8200 O   0  0  0  0  0  0  0  0  0  0  0  0
   -5.6502   -1.6175  -20.2160 C   0  0  0  0  0  0  0  0  0  0  0  0
   -6.0210   -1.6862  -18.7641 C   0  0  0  0  0  0  0  0  0  0  0  0
   -5.5649   -0.6119  -17.8219 N   0  0  0  0  0  0  0  0  0  0  0  0
   -4.7381    0.5311  -18.3315 C   0  0  0  0  0  0  0  0  0  0  0  0
   -4.3673    0.5999  -19.7833 C   0  0  0  0  0  0  0  0  0  0  0  0
   -3.5404    1.7430  -20.2929 C   0  0  0  0  0  0  0  0  0  0  0  0
   -3.1697    1.8117  -21.7448 C   0  0  0  0  0  0  0  0  0  0  0  0
   -3.6257    0.7374  -22.6870 C   0  0  0  0  0  0  0  0  0  0  0  0
   -4.4526   -0.4057  -22.1774 C   0  0  0  0  0  0  0  0  0  0  0  0
   -4.8234   -0.4744  -20.7256 C   0  0  0  0  0  0  0  0  0  0  0  0
   -8.3300   -6.9430  -25.2042 C   0  0  0  0  0  0  0  0  0  0  0  0
   -9.3302   -7.2746  -26.2718 C   0  0  0  0  0  0  0  0  0  0  0  0
   -8.3550   -6.5720  -28.5751 C   0  0  0  0  0  0  0  0  0  0  0  0
   -8.8633   -7.6379  -27.6501 N   0  0  0  0  0  0  0  0  0  0  0  0
   -8.8914   -8.6098  -27.9585 H   0  0  0  0  0  0  0  0  0  0  0  0
   -9.2089   -8.3627  -27.0212 H   0  0  0  0  0  0  0  0  0  0  0  0
   -5.9106   -6.1417  -22.9260 C   0  0  0  0  0  0  0  0  0  0  0  0
   -4.5452   -6.7271  -22.7194 N   0  0  0  0  0  0  0  0  0  0  0  0
   -4.1731   -6.7998  -21.8108 H   0  0  0  0  0  0  0  0  0  0  0  0
   -3.7466   -7.2018  -23.8971 C   0  0  0  0  0  0  0  0  0  0  0  0
   -2.3185   -6.7718  -24.0573 N   0  0  0  0  0  0  0  0  0  0  0  0
   -1.5199   -7.2464  -25.2349 C   0  0  0  0  0  0  0  0  0  0  0  0
   -2.1493   -8.1512  -26.2524 N   0  0  0  0  0  0  0  0  0  0  0  0
   -3.5774   -8.5812  -26.0922 C   0  0  0  0  0  0  0  0  0  0  0  0
   -4.3760   -8.1065  -24.9145 N   0  0  0  0  0  0  0  0  0  0  0  0
 30 31  1  0  0  0
 31 29  1  0  0  0
 29 28  1  0  0  0
 28  1  1  0  0  0
  1  2  1  0  0  0
  3  2  1  0  0  0
  3  4  1  0  0  0
  4  5  2  0  0  0
  4  6  1  0  0  0
  6 18  1  0  0  0
 18 19  2  0  0  0
 19 20  1  0  0  0
 20 21  2  0  0  0
 21 22  1  0  0  0
 22 23  2  0  0  0
 23 24  1  0  0  0
 24 25  2  0  0  0
 25 26  1  0  0  0
 26 27  2  0  0  0
  6  7  1  0  0  0
  7  8  1  0  0  0
  8 34  1  0  0  0
 34 35  1  0  0  0
 35 37  1  0  0  0
 37 38  2  0  0  0
 38 39  1  0  0  0
 39 40  2  0  0  0
 40 41  1  0  0  0
 41 42  2  0  0  0
  3  9  1  0  0  0
  9 10  2  0  0  0
 10 11  1  0  0  0
 11 12  1  0  0  0
 11 13  2  0  0  0
 13 14  1  0  0  0
 14 15  2  0  0  0
 15 16  1  0  0  0
 16 17  2  0  0  0
 16  1  1  0  0  0
  8  3  1  0  0  0
 42 37  1  0  0  0
 15  9  1  0  0  0
 27 18  1  0  0  0
 27 22  1  0  0  0
 31 32  1  0  0  0
 31 33  1  0  0  0
 35 36  1  0  0  0
M  CHG 1  31   1
M  END
> <minimizedAffinity>
-8.85021

> <CNNscore>
0.2958097160

> <CNNaffinity>
6.6906480789

> <CNN_VS>
1.9791587591

> <CNNaffinity_variance>
0.4620584846

$$$$



 42 47  0  0  0  0  0  0  0  0999 V2000
   -8.2364    2.4315  -24.2042 N   0  0  0  0  0  0  0  0  0  0  0  0
   -7.4233    1.1718  -24.2513 C   0  0  0  0  0  0  0  0  0  0  0  0
   -8.0835   -0.1559  -24.0251 C   0  0  0  0  0  0  0  0  0  0  0  0
   -8.6021   -1.5483  -23.8195 C   0  0  0  0  0  0  0  0  0  0  0  0
   -9.6434   -2.1284  -23.5838 O   0  0  0  0  0  0  0  0  0  0  0  0
   -7.4482   -2.4973  -23.9534 N   0  0  0  0  0  0  0  0  0  0  0  0
   -6.2164   -1.6914  -24.2418 C   0  0  0  0  0  0  0  0  0  0  0  0
   -6.6091   -0.2444  -24.2861 C   0  0  0  0  0  0  0  0  0  0  0  0
   -9.5569   -0.2240  -23.7518 C   0  0  0  0  0  0  0  0  0  0  0  0
  -10.2171   -1.5518  -23.5256 C   0  0  0  0  0  0  0  0  0  0  0  0
  -11.6904   -1.6198  -23.2523 C   0  0  0  0  0  0  0  0  0  0  0  0
  -12.3507   -2.9476  -23.0261 Cl  0  0  0  0  0  0  0  0  0  0  0  0
  -12.5035   -0.3602  -23.2052 C   0  0  0  0  0  0  0  0  0  0  0  0
  -11.8432    0.9675  -23.4313 C   0  0  0  0  0  0  0  0  0  0  0  0
  -10.3700    1.0356  -23.7046 C   0  0  0  0  0  0  0  0  0  0  0  0
   -9.7097    2.3634  -23.9309 C   0  0  0  0  0  0  0  0  0  0  0  0
  -10.5227    3.6230  -23.8837 O   0  0  0  0  0  0  0  0  0  0  0  0
   -7.5145   -3.9900  -23.8220 C   0  0  0  0  0  0  0  0  0  0  0  0
   -6.9686   -4.6600  -22.5960 C   0  0  0  0  0  0  0  0  0  0  0  0
   -7.0349   -6.1528  -22.4646 N   0  0  0  0  0  0  0  0  0  0  0  0
   -7.6471   -6.9755  -23.5592 C   0  0  0  0  0  0  0  0  0  0  0  0
   -8.1931   -6.3055  -24.7852 C   0  0  0  0  0  0  0  0  0  0  0  0
   -8.8053   -7.1284  -25.8798 C   0  0  0  0  0  0  0  0  0  0  0  0
   -9.3512   -6.4583  -27.1058 C   0  0  0  0  0  0  0  0  0  0  0  0
   -9.2849   -4.9656  -27.2372 C   0  0  0  0  0  0  0  0  0  0  0  0
   -8.6727   -4.1428  -26.1426 C   0  0  0  0  0  0  0  0  0  0  0  0
   -8.1268   -4.8128  -24.9166 C   0  0  0  0  0  0  0  0  0  0  0  0
   -7.5761    3.7592  -24.4304 C   0  0  0  0  0  0  0  0  0  0  0  0
   -8.1908    5.0076  -23.8703 C   0  0  0  0  0  0  0  0  0  0  0  0
   -6.8807    5.9367  -21.8282 C   0  0  0  0  0  0  0  0  0  0  0  0
   -8.1076    5.2899  -22.3995 N   0  0  0  0  0  0  0  0  0  0  0  0
   -8.8853    5.0421  -21.7878 H   0  0  0  0  0  0  0  0  0  0  0  0
   -8.9419    4.8502  -22.7880 H   0  0  0  0  0  0  0  0  0  0  0  0
   -5.6888    0.9113  -24.5458 C   0  0  0  0  0  0  0  0  0  0  0  0
   -4.2911    0.8942  -24.0016 N   0  0  0  0  0  0  0  0  0  0  0  0
   -3.5320    0.7091  -24.6005 H   0  0  0  0  0  0  0  0  0  0  0  0
   -4.0500    1.1590  -22.5450 C   0  0  0  0  0  0  0  0  0  0  0  0
   -3.3063    2.3902  -22.1196 N   0  0  0  0  0  0  0  0  0  0  0  0
   -3.0652    2.6550  -20.6630 C   0  0  0  0  0  0  0  0  0  0  0  0
   -3.5679    1.6886  -19.6317 N   0  0  0  0  0  0  0  0  0  0  0  0
   -4.3116    0.4574  -20.0571 C   0  0  0  0  0  0  0  0  0  0  0  0
   -4.5527    0.1926  -21.5138 N   0  0  0  0  0  0  0  0  0  0  0  0
 30 31  1  0  0  0
 31 29  1  0  0  0
 29 28  1  0  0  0
 28  1  1  0  0  0
  1  2  1  0  0  0
  3  2  1  0  0  0
  3  4  1  0  0  0
  4  5  2  0  0  0
  4  6  1  0  0  0
  6 18  1  0  0  0
 18 19  2  0  0  0
 19 20  1  0  0  0
 20 21  2  0  0  0
 21 22  1  0  0  0
 22 23  2  0  0  0
 23 24  1  0  0  0
 24 25  2  0  0  0
 25 26  1  0  0  0
 26 27  2  0  0  0
  6  7  1  0  0  0
  7  8  1  0  0  0
  8 34  1  0  0  0
 34 35  1  0  0  0
 35 37  1  0  0  0
 37 38  2  0  0  0
 38 39  1  0  0  0
 39 40  2  0  0  0
 40 41  1  0  0  0
 41 42  2  0  0  0
  3  9  1  0  0  0
  9 10  2  0  0  0
 10 11  1  0  0  0
 11 12  1  0  0  0
 11 13  2  0  0  0
 13 14  1  0  0  0
 14 15  2  0  0  0
 15 16  1  0  0  0
 16 17  2  0  0  0
 16  1  1  0  0  0
  8  3  1  0  0  0
 42 37  1  0  0  0
 15  9  1  0  0  0
 27 18  1  0  0  0
 27 22  1  0  0  0
 31 32  1  0  0  0
 31 33  1  0  0  0
 35 36  1  0  0  0
M  CHG 1  31   1
M  END
> <minimizedAffinity>
-7.41079

> <CNNscore>
0.1777937263

> <CNNaffinity>
6.4910788536

> <CNN_VS>
1.1540731192

> <CNNaffinity_variance>
0.3158356547

$$$$



 42 47  0  0  0  0  0  0  0  0999 V2000
   -9.0354    2.7493  -24.0799 N   0  0  0  0  0  0  0  0  0  0  0  0
   -8.0906    1.5866  -24.1548 C   0  0  0  0  0  0  0  0  0  0  0  0
   -8.6042    0.1898  -23.9675 C   0  0  0  0  0  0  0  0  0  0  0  0
   -8.9698   -1.2555  -23.8016 C   0  0  0  0  0  0  0  0  0  0  0  0
   -9.9431   -1.9507  -23.5877 O   0  0  0  0  0  0  0  0  0  0  0  0
   -7.7196   -2.0703  -23.9530 N   0  0  0  0  0  0  0  0  0  0  0  0
   -6.5812   -1.1287  -24.2124 C   0  0  0  0  0  0  0  0  0  0  0  0
   -7.1279    0.2681  -24.2214 C   0  0  0  0  0  0  0  0  0  0  0  0
  -10.0624   -0.0444  -23.7053 C   0  0  0  0  0  0  0  0  0  0  0  0
  -10.5760   -1.4412  -23.5181 C   0  0  0  0  0  0  0  0  0  0  0  0
  -12.0342   -1.6753  -23.2559 C   0  0  0  0  0  0  0  0  0  0  0  0
  -12.5477   -3.0722  -23.0686 Cl  0  0  0  0  0  0  0  0  0  0  0  0
  -12.9789   -0.5126  -23.1810 C   0  0  0  0  0  0  0  0  0  0  0  0
  -12.4654    0.8842  -23.3683 C   0  0  0  0  0  0  0  0  0  0  0  0
  -11.0071    1.1183  -23.6305 C   0  0  0  0  0  0  0  0  0  0  0  0
  -10.4936    2.5152  -23.8178 C   0  0  0  0  0  0  0  0  0  0  0  0
  -11.4383    3.6779  -23.7429 O   0  0  0  0  0  0  0  0  0  0  0  0
   -7.6245   -3.5645  -23.8610 C   0  0  0  0  0  0  0  0  0  0  0  0
   -7.0164   -4.2041  -22.6481 C   0  0  0  0  0  0  0  0  0  0  0  0
   -6.9212   -5.6982  -22.5561 N   0  0  0  0  0  0  0  0  0  0  0  0
   -7.4343   -6.5528  -23.6771 C   0  0  0  0  0  0  0  0  0  0  0  0
   -8.0424   -5.9132  -24.8900 C   0  0  0  0  0  0  0  0  0  0  0  0
   -8.5554   -6.7678  -26.0110 C   0  0  0  0  0  0  0  0  0  0  0  0
   -9.1635   -6.1281  -27.2238 C   0  0  0  0  0  0  0  0  0  0  0  0
   -9.2586   -4.6340  -27.3158 C   0  0  0  0  0  0  0  0  0  0  0  0
   -8.7456   -3.7794  -26.1949 C   0  0  0  0  0  0  0  0  0  0  0  0
   -8.1375   -4.4190  -24.9819 C   0  0  0  0  0  0  0  0  0  0  0  0
   -8.5218    4.1462  -24.2672 C   0  0  0  0  0  0  0  0  0  0  0  0
   -8.7755    5.1858  -23.2161 C   0  0  0  0  0  0  0  0  0  0  0  0
   -6.5240    4.5846  -22.0675 C   0  0  0  0  0  0  0  0  0  0  0  0
   -7.8125    5.3524  -22.0781 N   0  0  0  0  0  0  0  0  0  0  0  0
   -8.0339    5.9877  -21.3115 H   0  0  0  0  0  0  0  0  0  0  0  0
   -8.6887    5.8745  -22.0853 H   0  0  0  0  0  0  0  0  0  0  0  0
   -6.3371    1.5230  -24.4451 C   0  0  0  0  0  0  0  0  0  0  0  0
   -4.8727    1.5543  -24.1220 N   0  0  0  0  0  0  0  0  0  0  0  0
   -4.2077    1.4747  -24.8435 H   0  0  0  0  0  0  0  0  0  0  0  0
   -4.4215    1.7068  -22.6996 C   0  0  0  0  0  0  0  0  0  0  0  0
   -5.0858    0.9144  -21.6130 N   0  0  0  0  0  0  0  0  0  0  0  0
   -4.6347    1.0669  -20.1907 C   0  0  0  0  0  0  0  0  0  0  0  0
   -3.5191    2.0119  -19.8548 N   0  0  0  0  0  0  0  0  0  0  0  0
   -2.8548    2.8043  -20.9415 C   0  0  0  0  0  0  0  0  0  0  0  0
   -3.3060    2.6517  -22.3638 N   0  0  0  0  0  0  0  0  0  0  0  0
 30 31  1  0  0  0
 31 29  1  0  0  0
 29 28  1  0  0  0
 28  1  1  0  0  0
  1  2  1  0  0  0
  3  2  1  0  0  0
  3  4  1  0  0  0
  4  5  2  0  0  0
  4  6  1  0  0  0
  6 18  1  0  0  0
 18 19  2  0  0  0
 19 20  1  0  0  0
 20 21  2  0  0  0
 21 22  1  0  0  0
 22 23  2  0  0  0
 23 24  1  0  0  0
 24 25  2  0  0  0
 25 26  1  0  0  0
 26 27  2  0  0  0
  6  7  1  0  0  0
  7  8  1  0  0  0
  8 34  1  0  0  0
 34 35  1  0  0  0
 35 37  1  0  0  0
 37 38  2  0  0  0
 38 39  1  0  0  0
 39 40  2  0  0  0
 40 41  1  0  0  0
 41 42  2  0  0  0
  3  9  1  0  0  0
  9 10  2  0  0  0
 10 11  1  0  0  0
 11 12  1  0  0  0
 11 13  2  0  0  0
 13 14  1  0  0  0
 14 15  2  0  0  0
 15 16  1  0  0  0
 16 17  2  0  0  0
 16  1  1  0  0  0
  8  3  1  0  0  0
 42 37  1  0  0  0
 15  9  1  0  0  0
 27 18  1  0  0  0
 27 22  1  0  0  0
 31 32  1  0  0  0
 31 33  1  0  0  0
 35 36  1  0  0  0
M  CHG 1  31   1
M  END
> <minimizedAffinity>
-7.40155

> <CNNscore>
0.1619008034

> <CNNaffinity>
6.5771765709

> <CNN_VS>
1.0648502111

> <CNNaffinity_variance>
0.2020511180

$$$$



 42 47  0  0  0  0  0  0  0  0999 V2000
   -9.7386    3.1692  -24.1596 N   0  0  0  0  0  0  0  0  0  0  0  0
   -8.6467    2.1419  -24.2083 C   0  0  0  0  0  0  0  0  0  0  0  0
   -8.9668    0.6955  -23.9729 C   0  0  0  0  0  0  0  0  0  0  0  0
   -9.1340   -0.7797  -23.7589 C   0  0  0  0  0  0  0  0  0  0  0  0
  -10.0037   -1.5921  -23.5138 O   0  0  0  0  0  0  0  0  0  0  0  0
   -7.7865   -1.4240  -23.8978 N   0  0  0  0  0  0  0  0  0  0  0  0
   -6.7865   -0.3469  -24.1977 C   0  0  0  0  0  0  0  0  0  0  0  0
   -7.5160    0.9629  -24.2441 C   0  0  0  0  0  0  0  0  0  0  0  0
  -10.3788    0.2763  -23.6889 C   0  0  0  0  0  0  0  0  0  0  0  0
  -10.6988   -1.1701  -23.4535 C   0  0  0  0  0  0  0  0  0  0  0  0
  -12.1108   -1.5892  -23.1694 C   0  0  0  0  0  0  0  0  0  0  0  0
  -12.4309   -3.0356  -22.9340 Cl  0  0  0  0  0  0  0  0  0  0  0  0
  -13.2027   -0.5618  -23.1208 C   0  0  0  0  0  0  0  0  0  0  0  0
  -12.8826    0.8845  -23.3562 C   0  0  0  0  0  0  0  0  0  0  0  0
  -11.4707    1.3036  -23.6402 C   0  0  0  0  0  0  0  0  0  0  0  0
  -11.1506    2.7501  -23.8756 C   0  0  0  0  0  0  0  0  0  0  0  0
  -12.2425    3.7774  -23.8270 O   0  0  0  0  0  0  0  0  0  0  0  0
   -7.4909   -2.8882  -23.7609 C   0  0  0  0  0  0  0  0  0  0  0  0
   -6.7774   -3.3988  -22.5443 C   0  0  0  0  0  0  0  0  0  0  0  0
   -6.4819   -4.8630  -22.4073 N   0  0  0  0  0  0  0  0  0  0  0  0
   -6.8998   -5.8166  -23.4871 C   0  0  0  0  0  0  0  0  0  0  0  0
   -7.6134   -5.3060  -24.7037 C   0  0  0  0  0  0  0  0  0  0  0  0
   -8.0313   -6.2597  -25.7835 C   0  0  0  0  0  0  0  0  0  0  0  0
   -8.7449   -5.7491  -27.0001 C   0  0  0  0  0  0  0  0  0  0  0  0
   -9.0404   -4.2849  -27.1371 C   0  0  0  0  0  0  0  0  0  0  0  0
   -8.6224   -3.3312  -26.0573 C   0  0  0  0  0  0  0  0  0  0  0  0
   -7.9089   -3.8418  -24.8407 C   0  0  0  0  0  0  0  0  0  0  0  0
   -9.4185    4.6156  -24.3950 C   0  0  0  0  0  0  0  0  0  0  0  0
   -9.3112    5.1417  -25.7957 C   0  0  0  0  0  0  0  0  0  0  0  0
  -11.4897    6.5570  -25.8302 C   0  0  0  0  0  0  0  0  0  0  0  0
  -10.5385    5.6197  -26.5134 N   0  0  0  0  0  0  0  0  0  0  0  0
  -10.7264    5.3073  -27.4660 H   0  0  0  0  0  0  0  0  0  0  0  0
   -9.8918    4.9823  -26.9780 H   0  0  0  0  0  0  0  0  0  0  0  0
   -6.9023    2.3047  -24.5143 C   0  0  0  0  0  0  0  0  0  0  0  0
   -6.1196    3.0014  -23.4410 N   0  0  0  0  0  0  0  0  0  0  0  0
   -6.2686    3.9586  -23.2658 H   0  0  0  0  0  0  0  0  0  0  0  0
   -5.1099    2.2396  -22.6347 C   0  0  0  0  0  0  0  0  0  0  0  0
   -3.7502    1.9622  -23.2041 N   0  0  0  0  0  0  0  0  0  0  0  0
   -2.7406    1.2005  -22.3978 C   0  0  0  0  0  0  0  0  0  0  0  0
   -3.0905    0.7161  -21.0219 N   0  0  0  0  0  0  0  0  0  0  0  0
   -4.4502    0.9935  -20.4524 C   0  0  0  0  0  0  0  0  0  0  0  0
   -5.4599    1.7553  -21.2588 N   0  0  0  0  0  0  0  0  0  0  0  0
 30 31  1  0  0  0
 31 29  1  0  0  0
 29 28  1  0  0  0
 28  1  1  0  0  0
  1  2  1  0  0  0
  3  2  1  0  0  0
  3  4  1  0  0  0
  4  5  2  0  0  0
  4  6  1  0  0  0
  6 18  1  0  0  0
 18 19  2  0  0  0
 19 20  1  0  0  0
 20 21  2  0  0  0
 21 22  1  0  0  0
 22 23  2  0  0  0
 23 24  1  0  0  0
 24 25  2  0  0  0
 25 26  1  0  0  0
 26 27  2  0  0  0
  6  7  1  0  0  0
  7  8  1  0  0  0
  8 34  1  0  0  0
 34 35  1  0  0  0
 35 37  1  0  0  0
 37 38  2  0  0  0
 38 39  1  0  0  0
 39 40  2  0  0  0
 40 41  1  0  0  0
 41 42  2  0  0  0
  3  9  1  0  0  0
  9 10  2  0  0  0
 10 11  1  0  0  0
 11 12  1  0  0  0
 11 13  2  0  0  0
 13 14  1  0  0  0
 14 15  2  0  0  0
 15 16  1  0  0  0
 16 17  2  0  0  0
 16  1  1  0  0  0
  8  3  1  0  0  0
 42 37  1  0  0  0
 15  9  1  0  0  0
 27 18  1  0  0  0
 27 22  1  0  0  0
 31 32  1  0  0  0
 31 33  1  0  0  0
 35 36  1  0  0  0
M  CHG 1  31   1
M  END
> <minimizedAffinity>
-6.91267

> <CNNscore>
0.1231817305

> <CNNaffinity>
6.3240995407

> <CNN_VS>
0.7790135145

> <CNNaffinity_variance>
0.2326342314

$$$$



 42 47  0  0  0  0  0  0  0  0999 V2000
   -7.1078   -3.3104  -22.4963 N   0  0  0  0  0  0  0  0  0  0  0  0
   -7.8854   -2.3436  -23.3392 C   0  0  0  0  0  0  0  0  0  0  0  0
   -7.5594   -0.8801  -23.2962 C   0  0  0  0  0  0  0  0  0  0  0  0
   -7.3486    0.6037  -23.3577 C   0  0  0  0  0  0  0  0  0  0  0  0
   -6.6376    1.4636  -22.8766 O   0  0  0  0  0  0  0  0  0  0  0  0
   -8.3433    1.1735  -24.3251 N   0  0  0  0  0  0  0  0  0  0  0  0
   -9.1688    0.0418  -24.8615 C   0  0  0  0  0  0  0  0  0  0  0  0
   -8.6843   -1.2274  -24.2256 C   0  0  0  0  0  0  0  0  0  0  0  0
   -6.4555   -0.3834  -22.4101 C   0  0  0  0  0  0  0  0  0  0  0  0
   -6.1295    1.0800  -22.3671 C   0  0  0  0  0  0  0  0  0  0  0  0
   -5.0257    1.5767  -21.4811 C   0  0  0  0  0  0  0  0  0  0  0  0
   -4.6996    3.0402  -21.4379 Cl  0  0  0  0  0  0  0  0  0  0  0  0
   -4.2480    0.6099  -20.6381 C   0  0  0  0  0  0  0  0  0  0  0  0
   -4.5741   -0.8536  -20.6812 C   0  0  0  0  0  0  0  0  0  0  0  0
   -5.6779   -1.3502  -21.5672 C   0  0  0  0  0  0  0  0  0  0  0  0
   -6.0040   -2.8138  -21.6103 C   0  0  0  0  0  0  0  0  0  0  0  0
   -5.2264   -3.7806  -20.7674 O   0  0  0  0  0  0  0  0  0  0  0  0
   -8.4872    2.6209  -24.6917 C   0  0  0  0  0  0  0  0  0  0  0  0
   -7.3662    3.3330  -25.3892 C   0  0  0  0  0  0  0  0  0  0  0  0
   -7.5101    4.7803  -25.7558 N   0  0  0  0  0  0  0  0  0  0  0  0
   -8.7749    5.5156  -25.4249 C   0  0  0  0  0  0  0  0  0  0  0  0
   -9.8959    4.8036  -24.7274 C   0  0  0  0  0  0  0  0  0  0  0  0
  -11.1608    5.5389  -24.3965 C   0  0  0  0  0  0  0  0  0  0  0  0
  -12.2817    4.8268  -23.6990 C   0  0  0  0  0  0  0  0  0  0  0  0
  -12.1378    3.3794  -23.3324 C   0  0  0  0  0  0  0  0  0  0  0  0
  -10.8729    2.6441  -23.6633 C   0  0  0  0  0  0  0  0  0  0  0  0
   -9.7520    3.3562  -24.3608 C   0  0  0  0  0  0  0  0  0  0  0  0
   -7.4339   -4.7739  -22.5394 C   0  0  0  0  0  0  0  0  0  0  0  0
   -6.6695   -5.6861  -23.4525 C   0  0  0  0  0  0  0  0  0  0  0  0
   -4.4183   -6.8095  -22.8044 C   0  0  0  0  0  0  0  0  0  0  0  0
   -5.1696   -5.6766  -23.4384 N   0  0  0  0  0  0  0  0  0  0  0  0
   -4.6606   -4.8996  -23.8599 H   0  0  0  0  0  0  0  0  0  0  0  0
   -5.6805   -4.9061  -23.8695 H   0  0  0  0  0  0  0  0  0  0  0  0
   -9.2292   -2.6024  -24.4753 C   0  0  0  0  0  0  0  0  0  0  0  0
  -10.2957   -3.1606  -23.5804 N   0  0  0  0  0  0  0  0  0  0  0  0
  -10.1498   -4.0157  -23.1148 H   0  0  0  0  0  0  0  0  0  0  0  0
  -11.5845   -2.4159  -23.3947 C   0  0  0  0  0  0  0  0  0  0  0  0
  -11.8476   -1.1649  -24.1794 N   0  0  0  0  0  0  0  0  0  0  0  0
  -13.1363   -0.4202  -23.9937 C   0  0  0  0  0  0  0  0  0  0  0  0
  -14.1621   -0.9266  -23.0234 N   0  0  0  0  0  0  0  0  0  0  0  0
  -13.8990   -2.1776  -22.2388 C   0  0  0  0  0  0  0  0  0  0  0  0
  -12.6102   -2.9223  -22.4245 N   0  0  0  0  0  0  0  0  0  0  0  0
 30 31  1  0  0  0
 31 29  1  0  0  0
 29 28  1  0  0  0
 28  1  1  0  0  0
  1  2  1  0  0  0
  3  2  1  0  0  0
  3  4  1  0  0  0
  4  5  2  0  0  0
  4  6  1  0  0  0
  6 18  1  0  0  0
 18 19  2  0  0  0
 19 20  1  0  0  0
 20 21  2  0  0  0
 21 22  1  0  0  0
 22 23  2  0  0  0
 23 24  1  0  0  0
 24 25  2  0  0  0
 25 26  1  0  0  0
 26 27  2  0  0  0
  6  7  1  0  0  0
  7  8  1  0  0  0
  8 34  1  0  0  0
 34 35  1  0  0  0
 35 37  1  0  0  0
 37 38  2  0  0  0
 38 39  1  0  0  0
 39 40  2  0  0  0
 40 41  1  0  0  0
 41 42  2  0  0  0
  3  9  1  0  0  0
  9 10  2  0  0  0
 10 11  1  0  0  0
 11 12  1  0  0  0
 11 13  2  0  0  0
 13 14  1  0  0  0
 14 15  2  0  0  0
 15 16  1  0  0  0
 16 17  2  0  0  0
 16  1  1  0  0  0
  8  3  1  0  0  0
 42 37  1  0  0  0
 15  9  1  0  0  0
 27 18  1  0  0  0
 27 22  1  0  0  0
 31 32  1  0  0  0
 31 33  1  0  0  0
 35 36  1  0  0  0
M  CHG 1  31   1
M  END
> <minimizedAffinity>
-7.68147

> <CNNscore>
0.1118503511

> <CNNaffinity>
6.4716095924

> <CNN_VS>
0.7238518000

> <CNNaffinity_variance>
0.2737362385

$$$$



 42 47  0  0  0  0  0  0  0  0999 V2000
   -4.0049   -0.2292  -24.6795 N   0  0  0  0  0  0  0  0  0  0  0  0
   -5.2255    0.3350  -24.0148 C   0  0  0  0  0  0  0  0  0  0  0  0
   -6.5781   -0.2365  -24.3211 C   0  0  0  0  0  0  0  0  0  0  0  0
   -7.9890   -0.7022  -24.5270 C   0  0  0  0  0  0  0  0  0  0  0  0
   -8.6127   -1.5305  -25.1605 O   0  0  0  0  0  0  0  0  0  0  0  0
   -8.8850    0.1389  -23.6670 N   0  0  0  0  0  0  0  0  0  0  0  0
   -8.0279    1.1245  -22.9295 C   0  0  0  0  0  0  0  0  0  0  0  0
   -6.6022    0.8925  -23.3338 C   0  0  0  0  0  0  0  0  0  0  0  0
   -6.7101   -1.3721  -25.2922 C   0  0  0  0  0  0  0  0  0  0  0  0
   -8.0627   -1.9436  -25.5985 C   0  0  0  0  0  0  0  0  0  0  0  0
   -8.1947   -3.0792  -26.5695 C   0  0  0  0  0  0  0  0  0  0  0  0
   -9.5474   -3.6507  -26.8759 Cl  0  0  0  0  0  0  0  0  0  0  0  0
   -6.9741   -3.6434  -27.2342 C   0  0  0  0  0  0  0  0  0  0  0  0
   -5.6215   -3.0719  -26.9278 C   0  0  0  0  0  0  0  0  0  0  0  0
   -5.4895   -1.9363  -25.9568 C   0  0  0  0  0  0  0  0  0  0  0  0
   -4.1369   -1.3648  -25.6505 C   0  0  0  0  0  0  0  0  0  0  0  0
   -2.9163   -1.9290  -26.3151 O   0  0  0  0  0  0  0  0  0  0  0  0
  -10.3764    0.0160  -23.5628 C   0  0  0  0  0  0  0  0  0  0  0  0
  -11.0015   -1.3197  -23.2887 C   0  0  0  0  0  0  0  0  0  0  0  0
  -12.4928   -1.4426  -23.1845 N   0  0  0  0  0  0  0  0  0  0  0  0
  -13.3590   -0.2298  -23.3543 C   0  0  0  0  0  0  0  0  0  0  0  0
  -12.7338    1.1059  -23.6284 C   0  0  0  0  0  0  0  0  0  0  0  0
  -13.6001    2.3187  -23.7982 C   0  0  0  0  0  0  0  0  0  0  0  0
  -12.9748    3.6544  -24.0723 C   0  0  0  0  0  0  0  0  0  0  0  0
  -11.4835    3.7773  -24.1765 C   0  0  0  0  0  0  0  0  0  0  0  0
  -10.6174    2.5645  -24.0067 C   0  0  0  0  0  0  0  0  0  0  0  0
  -11.2425    1.2288  -23.7326 C   0  0  0  0  0  0  0  0  0  0  0  0
   -2.6522    0.3423  -24.3731 C   0  0  0  0  0  0  0  0  0  0  0  0
   -2.2833    0.6793  -22.9588 C   0  0  0  0  0  0  0  0  0  0  0  0
   -0.5095    2.4112  -23.7359 C   0  0  0  0  0  0  0  0  0  0  0  0
   -1.0604    1.5014  -22.6782 N   0  0  0  0  0  0  0  0  0  0  0  0
   -0.6035    1.4418  -21.7682 H   0  0  0  0  0  0  0  0  0  0  0  0
   -1.4351    0.8827  -21.9590 H   0  0  0  0  0  0  0  0  0  0  0  0
   -5.4098    1.6555  -22.8377 C   0  0  0  0  0  0  0  0  0  0  0  0
   -5.3093    2.0313  -21.3891 N   0  0  0  0  0  0  0  0  0  0  0  0
   -5.1380    2.9666  -21.1340 H   0  0  0  0  0  0  0  0  0  0  0  0
   -5.4698    0.9821  -20.3292 C   0  0  0  0  0  0  0  0  0  0  0  0
   -4.6467    1.0489  -19.0770 N   0  0  0  0  0  0  0  0  0  0  0  0
   -4.8072   -0.0002  -18.0171 C   0  0  0  0  0  0  0  0  0  0  0  0
   -5.7909   -1.1163  -18.2093 N   0  0  0  0  0  0  0  0  0  0  0  0
   -6.6140   -1.1831  -19.4615 C   0  0  0  0  0  0  0  0  0  0  0  0
   -6.4534   -0.1339  -20.5215 N   0  0  0  0  0  0  0  0  0  0  0  0
 30 31  1  0  0  0
 31 29  1  0  0  0
 29 28  1  0  0  0
 28  1  1  0  0  0
  1  2  1  0  0  0
  3  2  1  0  0  0
  3  4  1  0  0  0
  4  5  2  0  0  0
  4  6  1  0  0  0
  6 18  1  0  0  0
 18 19  2  0  0  0
 19 20  1  0  0  0
 20 21  2  0  0  0
 21 22  1  0  0  0
 22 23  2  0  0  0
 23 24  1  0  0  0
 24 25  2  0  0  0
 25 26  1  0  0  0
 26 27  2  0  0  0
  6  7  1  0  0  0
  7  8  1  0  0  0
  8 34  1  0  0  0
 34 35  1  0  0  0
 35 37  1  0  0  0
 37 38  2  0  0  0
 38 39  1  0  0  0
 39 40  2  0  0  0
 40 41  1  0  0  0
 41 42  2  0  0  0
  3  9  1  0  0  0
  9 10  2  0  0  0
 10 11  1  0  0  0
 11 12  1  0  0  0
 11 13  2  0  0  0
 13 14  1  0  0  0
 14 15  2  0  0  0
 15 16  1  0  0  0
 16 17  2  0  0  0
 16  1  1  0  0  0
  8  3  1  0  0  0
 42 37  1  0  0  0
 15  9  1  0  0  0
 27 18  1  0  0  0
 27 22  1  0  0  0
 31 32  1  0  0  0
 31 33  1  0  0  0
 35 36  1  0  0  0
M  CHG 1  31   1
M  END
> <minimizedAffinity>
-7.22649

> <CNNscore>
0.0842371508

> <CNNaffinity>
5.9852857590

> <CNN_VS>
0.5041834116

> <CNNaffinity_variance>
0.2765647769

$$$$
