


 22 24  0  0  0  0  0  0  0  0999 V2000
   -8.2871   -5.4566  -25.3238 C   0  0  0  0  0  0  0  0  0  0  0  0
   -8.5697   -3.9952  -25.1388 C   0  0  0  0  0  0  0  0  0  0  0  0
   -7.9221   -3.2426  -24.0143 C   0  0  0  0  0  0  0  0  0  0  0  0
   -6.9920   -3.9515  -23.0750 N   0  0  0  0  0  0  0  0  0  0  0  0
   -6.3445   -3.1989  -21.9506 C   0  0  0  0  0  0  0  0  0  0  0  0
   -5.4144   -3.9078  -21.0112 O   0  0  0  0  0  0  0  0  0  0  0  0
   -6.7095   -5.4130  -23.2600 C   0  0  0  0  0  0  0  0  0  0  0  0
   -7.3570   -6.1656  -24.3844 C   0  0  0  0  0  0  0  0  0  0  0  0
   -8.0922   -6.7918  -27.5440 C   0  0  0  0  0  0  0  0  0  0  0  0
   -8.9347   -6.2092  -26.4482 C   0  0  0  0  0  0  0  0  0  0  0  0
  -10.4248   -6.3792  -26.4768 C   0  0  0  0  0  0  0  0  0  0  0  0
   -6.6270   -1.7374  -21.7655 C   0  0  0  0  0  0  0  0  0  0  0  0
   -6.1010   -1.0188  -20.5585 C   0  0  0  0  0  0  0  0  0  0  0  0
   -6.7844   -1.1795  -19.2330 C   0  0  0  0  0  0  0  0  0  0  0  0
   -6.2583   -0.4608  -18.0260 N   0  0  0  0  0  0  0  0  0  0  0  0
   -5.0489    0.4185  -18.1445 C   0  0  0  0  0  0  0  0  0  0  0  0
   -4.3654    0.5792  -19.4701 C   0  0  0  0  0  0  0  0  0  0  0  0
   -3.1560    1.4584  -19.5887 C   0  0  0  0  0  0  0  0  0  0  0  0
   -2.4726    1.6191  -20.9142 C   0  0  0  0  0  0  0  0  0  0  0  0
   -2.9987    0.9005  -22.1212 C   0  0  0  0  0  0  0  0  0  0  0  0
   -4.2081    0.0212  -22.0027 C   0  0  0  0  0  0  0  0  0  0  0  0
   -4.8915   -0.1395  -20.6771 C   0  0  0  0  0  0  0  0  0  0  0  0
  9 10  1  0  0  0
 10 11  1  0  0  0
 10  1  1  0  0  0
  1  2  1  0  0  0
  2  3  1  0  0  0
  3  4  1  0  0  0
  4  5  1  0  0  0
  5  6  2  0  0  0
  5 12  1  0  0  0
 12 13  1  0  0  0
 13 14  2  0  0  0
 14 15  1  0  0  0
 15 16  2  0  0  0
 16 17  1  0  0  0
 17 18  2  0  0  0
 18 19  1  0  0  0
 19 20  2  0  0  0
 20 21  1  0  0  0
 21 22  2  0  0  0
  4  7  1  0  0  0
  7  8  1  0  0  0
  8  1  1  0  0  0
 22 13  1  0  0  0
 22 17  1  0  0  0
M  END
> <minimizedAffinity>
-7.03742

> <CNNscore>
0.7416193485

> <CNNaffinity>
5.3461427689

> <CNN_VS>
3.9648029804

> <CNNaffinity_variance>
0.2455904186

$$$$



 22 24  0  0  0  0  0  0  0  0999 V2000
   -8.7551   -5.1580  -25.3610 C   0  0  0  0  0  0  0  0  0  0  0  0
   -7.3705   -5.2540  -24.7921 C   0  0  0  0  0  0  0  0  0  0  0  0
   -6.9493   -4.3341  -23.6847 C   0  0  0  0  0  0  0  0  0  0  0  0
   -7.9126   -3.3182  -23.1462 N   0  0  0  0  0  0  0  0  0  0  0  0
   -7.4913   -2.3983  -22.0388 C   0  0  0  0  0  0  0  0  0  0  0  0
   -8.4547   -1.3824  -21.5003 O   0  0  0  0  0  0  0  0  0  0  0  0
   -9.2972   -3.2222  -23.7151 C   0  0  0  0  0  0  0  0  0  0  0  0
   -9.7185   -4.1421  -24.8225 C   0  0  0  0  0  0  0  0  0  0  0  0
   -8.1424   -6.7121  -27.3508 C   0  0  0  0  0  0  0  0  0  0  0  0
   -9.1764   -6.0779  -26.4684 C   0  0  0  0  0  0  0  0  0  0  0  0
  -10.6317   -6.3635  -26.6934 C   0  0  0  0  0  0  0  0  0  0  0  0
   -6.1067   -2.4943  -21.4699 C   0  0  0  0  0  0  0  0  0  0  0  0
   -5.6875   -1.5786  -20.3582 C   0  0  0  0  0  0  0  0  0  0  0  0
   -6.1708   -1.8262  -18.9600 C   0  0  0  0  0  0  0  0  0  0  0  0
   -5.7515   -0.9105  -17.8484 N   0  0  0  0  0  0  0  0  0  0  0  0
   -4.8490    0.2528  -18.1350 C   0  0  0  0  0  0  0  0  0  0  0  0
   -4.3656    0.5004  -19.5333 C   0  0  0  0  0  0  0  0  0  0  0  0
   -3.4631    1.6637  -19.8199 C   0  0  0  0  0  0  0  0  0  0  0  0
   -2.9798    1.9112  -21.2181 C   0  0  0  0  0  0  0  0  0  0  0  0
   -3.3990    0.9955  -22.3297 C   0  0  0  0  0  0  0  0  0  0  0  0
   -4.3016   -0.1678  -22.0431 C   0  0  0  0  0  0  0  0  0  0  0  0
   -4.7849   -0.4153  -20.6449 C   0  0  0  0  0  0  0  0  0  0  0  0
  9 10  1  0  0  0
 10 11  1  0  0  0
 10  1  1  0  0  0
  1  2  1  0  0  0
  2  3  1  0  0  0
  3  4  1  0  0  0
  4  5  1  0  0  0
  5  6  2  0  0  0
  5 12  1  0  0  0
 12 13  1  0  0  0
 13 14  2  0  0  0
 14 15  1  0  0  0
 15 16  2  0  0  0
 16 17  1  0  0  0
 17 18  2  0  0  0
 18 19  1  0  0  0
 19 20  2  0  0  0
 20 21  1  0  0  0
 21 22  2  0  0  0
  4  7  1  0  0  0
  7  8  1  0  0  0
  8  1  1  0  0  0
 22 13  1  0  0  0
 22 17  1  0  0  0
M  END
> <minimizedAffinity>
-6.95012

> <CNNscore>
0.7387121320

> <CNNaffinity>
5.2865343094

> <CNN_VS>
3.9052269459

> <CNNaffinity_variance>
0.1908434331

$$$$



 22 24  0  0  0  0  0  0  0  0999 V2000
   -6.7770   -5.6750  -24.1030 C   0  0  0  0  0  0  0  0  0  0  0  0
   -7.2160   -4.2409  -24.0764 C   0  0  0  0  0  0  0  0  0  0  0  0
   -6.8848   -3.3769  -22.8959 C   0  0  0  0  0  0  0  0  0  0  0  0
   -6.1146   -3.9469  -21.7419 N   0  0  0  0  0  0  0  0  0  0  0  0
   -5.7833   -3.0828  -20.5613 C   0  0  0  0  0  0  0  0  0  0  0  0
   -5.0131   -3.6529  -19.4072 O   0  0  0  0  0  0  0  0  0  0  0  0
   -5.6755   -5.3810  -21.7684 C   0  0  0  0  0  0  0  0  0  0  0  0
   -6.0067   -6.2450  -22.9489 C   0  0  0  0  0  0  0  0  0  0  0  0
   -6.0121   -7.0439  -26.1744 C   0  0  0  0  0  0  0  0  0  0  0  0
   -7.1082   -6.5390  -25.2835 C   0  0  0  0  0  0  0  0  0  0  0  0
   -8.5355   -6.8981  -25.5732 C   0  0  0  0  0  0  0  0  0  0  0  0
   -6.2224   -1.6488  -20.5347 C   0  0  0  0  0  0  0  0  0  0  0  0
   -5.2196   -0.5620  -20.2834 C   0  0  0  0  0  0  0  0  0  0  0  0
   -5.0472   -0.0056  -18.9011 C   0  0  0  0  0  0  0  0  0  0  0  0
   -4.0444    1.0812  -18.6498 N   0  0  0  0  0  0  0  0  0  0  0  0
   -3.2140    1.6117  -19.7807 C   0  0  0  0  0  0  0  0  0  0  0  0
   -3.3864    1.0553  -21.1631 C   0  0  0  0  0  0  0  0  0  0  0  0
   -2.5560    1.5858  -22.2940 C   0  0  0  0  0  0  0  0  0  0  0  0
   -2.7284    1.0294  -23.6762 C   0  0  0  0  0  0  0  0  0  0  0  0
   -3.7312   -0.0574  -23.9276 C   0  0  0  0  0  0  0  0  0  0  0  0
   -4.5616   -0.5879  -22.7967 C   0  0  0  0  0  0  0  0  0  0  0  0
   -4.3892   -0.0315  -21.4144 C   0  0  0  0  0  0  0  0  0  0  0  0
  9 10  1  0  0  0
 10 11  1  0  0  0
 10  1  1  0  0  0
  1  2  1  0  0  0
  2  3  1  0  0  0
  3  4  1  0  0  0
  4  5  1  0  0  0
  5  6  2  0  0  0
  5 12  1  0  0  0
 12 13  1  0  0  0
 13 14  2  0  0  0
 14 15  1  0  0  0
 15 16  2  0  0  0
 16 17  1  0  0  0
 17 18  2  0  0  0
 18 19  1  0  0  0
 19 20  2  0  0  0
 20 21  1  0  0  0
 21 22  2  0  0  0
  4  7  1  0  0  0
  7  8  1  0  0  0
  8  1  1  0  0  0
 22 13  1  0  0  0
 22 17  1  0  0  0
M  END
> <minimizedAffinity>
-6.58426

> <CNNscore>
0.6162832975

> <CNNaffinity>
4.9782881737

> <CNN_VS>
3.0680358410

> <CNNaffinity_variance>
0.2401473969

$$$$



 22 24  0  0  0  0  0  0  0  0999 V2000
  -10.8227   -0.2975  -23.0575 C   0  0  0  0  0  0  0  0  0  0  0  0
   -9.5060    0.3884  -22.8435 C   0  0  0  0  0  0  0  0  0  0  0  0
   -8.2645   -0.4238  -22.6220 C   0  0  0  0  0  0  0  0  0  0  0  0
   -8.3396   -1.9219  -22.6146 N   0  0  0  0  0  0  0  0  0  0  0  0
   -7.0981   -2.7340  -22.3931 C   0  0  0  0  0  0  0  0  0  0  0  0
   -7.1734   -4.2322  -22.3857 O   0  0  0  0  0  0  0  0  0  0  0  0
   -9.6564   -2.6078  -22.8286 C   0  0  0  0  0  0  0  0  0  0  0  0
  -10.8979   -1.7957  -23.0501 C   0  0  0  0  0  0  0  0  0  0  0  0
  -13.2744   -0.1191  -23.8984 C   0  0  0  0  0  0  0  0  0  0  0  0
  -12.0642    0.5146  -23.2790 C   0  0  0  0  0  0  0  0  0  0  0  0
  -12.0954    1.9606  -22.8810 C   0  0  0  0  0  0  0  0  0  0  0  0
   -5.7815   -2.0481  -22.1791 C   0  0  0  0  0  0  0  0  0  0  0  0
   -5.4963   -1.3619  -20.8761 C   0  0  0  0  0  0  0  0  0  0  0  0
   -6.1506   -1.8443  -19.6155 C   0  0  0  0  0  0  0  0  0  0  0  0
   -5.8655   -1.1581  -18.3125 N   0  0  0  0  0  0  0  0  0  0  0  0
   -4.9260    0.0104  -18.2700 C   0  0  0  0  0  0  0  0  0  0  0  0
   -4.2716    0.4928  -19.5307 C   0  0  0  0  0  0  0  0  0  0  0  0
   -3.3320    1.6613  -19.4882 C   0  0  0  0  0  0  0  0  0  0  0  0
   -2.6777    2.1437  -20.7488 C   0  0  0  0  0  0  0  0  0  0  0  0
   -2.9629    1.4575  -22.0518 C   0  0  0  0  0  0  0  0  0  0  0  0
   -3.9024    0.2890  -22.0943 C   0  0  0  0  0  0  0  0  0  0  0  0
   -4.5567   -0.1934  -20.8337 C   0  0  0  0  0  0  0  0  0  0  0  0
  9 10  1  0  0  0
 10 11  1  0  0  0
 10  1  1  0  0  0
  1  2  1  0  0  0
  2  3  1  0  0  0
  3  4  1  0  0  0
  4  5  1  0  0  0
  5  6  2  0  0  0
  5 12  1  0  0  0
 12 13  1  0  0  0
 13 14  2  0  0  0
 14 15  1  0  0  0
 15 16  2  0  0  0
 16 17  1  0  0  0
 17 18  2  0  0  0
 18 19  1  0  0  0
 19 20  2  0  0  0
 20 21  1  0  0  0
 21 22  2  0  0  0
  4  7  1  0  0  0
  7  8  1  0  0  0
  8  1  1  0  0  0
 22 13  1  0  0  0
 22 17  1  0  0  0
M  END
> <minimizedAffinity>
-6.95678

> <CNNscore>
0.5887242556

> <CNNaffinity>
5.1808781624

> <CNN_VS>
3.0501086712

> <CNNaffinity_variance>
0.5175264478

$$$$



 22 24  0  0  0  0  0  0  0  0999 V2000
   -2.6766    1.4062  -20.8888 C   0  0  0  0  0  0  0  0  0  0  0  0
   -3.4471    0.8718  -22.0596 C   0  0  0  0  0  0  0  0  0  0  0  0
   -4.7913    0.2408  -21.8479 C   0  0  0  0  0  0  0  0  0  0  0  0
   -5.3651    0.1442  -20.4654 N   0  0  0  0  0  0  0  0  0  0  0  0
   -6.7094   -0.4868  -20.2537 C   0  0  0  0  0  0  0  0  0  0  0  0
   -7.2832   -0.5834  -18.8711 O   0  0  0  0  0  0  0  0  0  0  0  0
   -4.5947    0.6786  -19.2945 C   0  0  0  0  0  0  0  0  0  0  0  0
   -3.2505    1.3096  -19.5062 C   0  0  0  0  0  0  0  0  0  0  0  0
   -0.4774    2.3944  -19.9209 C   0  0  0  0  0  0  0  0  0  0  0  0
   -1.3324    2.0372  -21.1005 C   0  0  0  0  0  0  0  0  0  0  0  0
   -0.8432    2.3111  -22.4918 C   0  0  0  0  0  0  0  0  0  0  0  0
   -7.4798   -1.0212  -21.4245 C   0  0  0  0  0  0  0  0  0  0  0  0
   -8.4387   -0.1326  -22.1601 C   0  0  0  0  0  0  0  0  0  0  0  0
   -8.0654    1.2892  -22.4585 C   0  0  0  0  0  0  0  0  0  0  0  0
   -9.0242    2.1778  -23.1940 N   0  0  0  0  0  0  0  0  0  0  0  0
  -10.3564    1.6446  -23.6311 C   0  0  0  0  0  0  0  0  0  0  0  0
  -10.7297    0.2227  -23.3327 C   0  0  0  0  0  0  0  0  0  0  0  0
  -12.0618   -0.3104  -23.7697 C   0  0  0  0  0  0  0  0  0  0  0  0
  -12.4351   -1.7322  -23.4713 C   0  0  0  0  0  0  0  0  0  0  0  0
  -11.4763   -2.6208  -22.7357 C   0  0  0  0  0  0  0  0  0  0  0  0
  -10.1442   -2.0876  -22.2987 C   0  0  0  0  0  0  0  0  0  0  0  0
   -9.7709   -0.6659  -22.5971 C   0  0  0  0  0  0  0  0  0  0  0  0
  9 10  1  0  0  0
 10 11  1  0  0  0
 10  1  1  0  0  0
  1  2  1  0  0  0
  2  3  1  0  0  0
  3  4  1  0  0  0
  4  5  1  0  0  0
  5  6  2  0  0  0
  5 12  1  0  0  0
 12 13  1  0  0  0
 13 14  2  0  0  0
 14 15  1  0  0  0
 15 16  2  0  0  0
 16 17  1  0  0  0
 17 18  2  0  0  0
 18 19  1  0  0  0
 19 20  2  0  0  0
 20 21  1  0  0  0
 21 22  2  0  0  0
  4  7  1  0  0  0
  7  8  1  0  0  0
  8  1  1  0  0  0
 22 13  1  0  0  0
 22 17  1  0  0  0
M  END
> <minimizedAffinity>
-6.28278

> <CNNscore>
0.4845340550

> <CNNaffinity>
4.8926873207

> <CNN_VS>
2.3706736565

> <CNNaffinity_variance>
0.2699931264

$$$$



 22 24  0  0  0  0  0  0  0  0999 V2000
   -5.8076   -0.8563  -20.0406 C   0  0  0  0  0  0  0  0  0  0  0  0
   -7.2380   -0.6177  -20.4240 C   0  0  0  0  0  0  0  0  0  0  0  0
   -7.9224   -1.5463  -21.3828 C   0  0  0  0  0  0  0  0  0  0  0  0
   -7.1764   -2.7135  -21.9583 N   0  0  0  0  0  0  0  0  0  0  0  0
   -7.8608   -3.6420  -22.9171 C   0  0  0  0  0  0  0  0  0  0  0  0
   -7.1147   -4.8092  -23.4926 O   0  0  0  0  0  0  0  0  0  0  0  0
   -5.7459   -2.9521  -21.5749 C   0  0  0  0  0  0  0  0  0  0  0  0
   -5.0615   -2.0235  -20.6160 C   0  0  0  0  0  0  0  0  0  0  0  0
   -5.4060   -0.0256  -17.6119 C   0  0  0  0  0  0  0  0  0  0  0  0
   -5.1233    0.0722  -19.0817 C   0  0  0  0  0  0  0  0  0  0  0  0
   -4.1561    1.0987  -19.5928 C   0  0  0  0  0  0  0  0  0  0  0  0
   -9.2911   -3.4034  -23.3006 C   0  0  0  0  0  0  0  0  0  0  0  0
   -9.7487   -2.0232  -23.6687 C   0  0  0  0  0  0  0  0  0  0  0  0
   -8.7970   -1.0678  -24.3255 C   0  0  0  0  0  0  0  0  0  0  0  0
   -9.2546    0.3125  -24.6936 N   0  0  0  0  0  0  0  0  0  0  0  0
  -10.6639    0.7373  -24.4049 C   0  0  0  0  0  0  0  0  0  0  0  0
  -11.6157   -0.2181  -23.7481 C   0  0  0  0  0  0  0  0  0  0  0  0
  -13.0250    0.2067  -23.4595 C   0  0  0  0  0  0  0  0  0  0  0  0
  -13.9767   -0.7487  -22.8027 C   0  0  0  0  0  0  0  0  0  0  0  0
  -13.5191   -2.1290  -22.4346 C   0  0  0  0  0  0  0  0  0  0  0  0
  -12.1098   -2.5538  -22.7232 C   0  0  0  0  0  0  0  0  0  0  0  0
  -11.1581   -1.5984  -23.3800 C   0  0  0  0  0  0  0  0  0  0  0  0
  9 10  1  0  0  0
 10 11  1  0  0  0
 10  1  1  0  0  0
  1  2  1  0  0  0
  2  3  1  0  0  0
  3  4  1  0  0  0
  4  5  1  0  0  0
  5  6  2  0  0  0
  5 12  1  0  0  0
 12 13  1  0  0  0
 13 14  2  0  0  0
 14 15  1  0  0  0
 15 16  2  0  0  0
 16 17  1  0  0  0
 17 18  2  0  0  0
 18 19  1  0  0  0
 19 20  2  0  0  0
 20 21  1  0  0  0
 21 22  2  0  0  0
  4  7  1  0  0  0
  7  8  1  0  0  0
  8  1  1  0  0  0
 22 13  1  0  0  0
 22 17  1  0  0  0
M  END
> <minimizedAffinity>
-6.46284

> <CNNscore>
0.4688781500

> <CNNaffinity>
5.0761570930

> <CNN_VS>
2.3800990582

> <CNNaffinity_variance>
0.1653692424

$$$$



 22 24  0  0  0  0  0  0  0  0999 V2000
  -10.8735    1.1118  -23.3220 C   0  0  0  0  0  0  0  0  0  0  0  0
   -9.4377    1.4240  -23.0203 C   0  0  0  0  0  0  0  0  0  0  0  0
   -8.4719    0.3118  -22.7368 C   0  0  0  0  0  0  0  0  0  0  0  0
   -8.9419   -1.1125  -22.7549 N   0  0  0  0  0  0  0  0  0  0  0  0
   -7.9761   -2.2247  -22.4714 C   0  0  0  0  0  0  0  0  0  0  0  0
   -8.4462   -3.6490  -22.4895 O   0  0  0  0  0  0  0  0  0  0  0  0
  -10.3778   -1.4247  -23.0566 C   0  0  0  0  0  0  0  0  0  0  0  0
  -11.3435   -0.3126  -23.3401 C   0  0  0  0  0  0  0  0  0  0  0  0
  -11.3582    3.4878  -24.2545 C   0  0  0  0  0  0  0  0  0  0  0  0
  -11.8393    2.2239  -23.6055 C   0  0  0  0  0  0  0  0  0  0  0  0
  -13.2862    2.0722  -23.2400 C   0  0  0  0  0  0  0  0  0  0  0  0
   -6.5403   -1.9125  -22.1698 C   0  0  0  0  0  0  0  0  0  0  0  0
   -6.1739   -1.2408  -20.8796 C   0  0  0  0  0  0  0  0  0  0  0  0
   -6.9689   -1.5170  -19.6380 C   0  0  0  0  0  0  0  0  0  0  0  0
   -6.6025   -0.8453  -18.3478 N   0  0  0  0  0  0  0  0  0  0  0  0
   -5.4410    0.1026  -18.2993 C   0  0  0  0  0  0  0  0  0  0  0  0
   -4.6459    0.3789  -19.5409 C   0  0  0  0  0  0  0  0  0  0  0  0
   -3.4844    1.3268  -19.4924 C   0  0  0  0  0  0  0  0  0  0  0  0
   -2.6894    1.6030  -20.7340 C   0  0  0  0  0  0  0  0  0  0  0  0
   -3.0559    0.9313  -22.0241 C   0  0  0  0  0  0  0  0  0  0  0  0
   -4.2173   -0.0166  -22.0727 C   0  0  0  0  0  0  0  0  0  0  0  0
   -5.0124   -0.2928  -20.8311 C   0  0  0  0  0  0  0  0  0  0  0  0
  9 10  1  0  0  0
 10 11  1  0  0  0
 10  1  1  0  0  0
  1  2  1  0  0  0
  2  3  1  0  0  0
  3  4  1  0  0  0
  4  5  1  0  0  0
  5  6  2  0  0  0
  5 12  1  0  0  0
 12 13  1  0  0  0
 13 14  2  0  0  0
 14 15  1  0  0  0
 15 16  2  0  0  0
 16 17  1  0  0  0
 17 18  2  0  0  0
 18 19  1  0  0  0
 19 20  2  0  0  0
 20 21  1  0  0  0
 21 22  2  0  0  0
  4  7  1  0  0  0
  7  8  1  0  0  0
  8  1  1  0  0  0
 22 13  1  0  0  0
 22 17  1  0  0  0
M  END
> <minimizedAffinity>
-6.91659

> <CNNscore>
0.4353961945

> <CNNaffinity>
4.9990549088

> <CNN_VS>
2.1765694618

> <CNNaffinity_variance>
0.5155547857

$$$$



 22 24  0  0  0  0  0  0  0  0999 V2000
  -12.3887    1.9503  -23.5366 C   0  0  0  0  0  0  0  0  0  0  0  0
  -10.9342    1.7555  -23.8473 C   0  0  0  0  0  0  0  0  0  0  0  0
  -10.3638    0.3706  -23.9299 C   0  0  0  0  0  0  0  0  0  0  0  0
  -11.2479   -0.8194  -23.7019 N   0  0  0  0  0  0  0  0  0  0  0  0
  -10.6775   -2.2043  -23.7845 C   0  0  0  0  0  0  0  0  0  0  0  0
  -11.5616   -3.3944  -23.5564 O   0  0  0  0  0  0  0  0  0  0  0  0
  -12.7024   -0.6247  -23.3911 C   0  0  0  0  0  0  0  0  0  0  0  0
  -13.2728    0.7601  -23.3085 C   0  0  0  0  0  0  0  0  0  0  0  0
  -13.2682    4.0951  -24.7096 C   0  0  0  0  0  0  0  0  0  0  0  0
  -12.9591    3.3351  -23.4539 C   0  0  0  0  0  0  0  0  0  0  0  0
  -13.2203    3.9600  -22.1155 C   0  0  0  0  0  0  0  0  0  0  0  0
   -9.2230   -2.3991  -24.0952 C   0  0  0  0  0  0  0  0  0  0  0  0
   -8.6341   -3.7786  -24.0942 C   0  0  0  0  0  0  0  0  0  0  0  0
   -7.9178   -4.2874  -22.8785 C   0  0  0  0  0  0  0  0  0  0  0  0
   -7.3288   -5.6669  -22.8774 N   0  0  0  0  0  0  0  0  0  0  0  0
   -7.4561   -6.5377  -24.0922 C   0  0  0  0  0  0  0  0  0  0  0  0
   -8.1724   -6.0289  -25.3080 C   0  0  0  0  0  0  0  0  0  0  0  0
   -8.2997   -6.8996  -26.5227 C   0  0  0  0  0  0  0  0  0  0  0  0
   -9.0160   -6.3908  -27.7384 C   0  0  0  0  0  0  0  0  0  0  0  0
   -9.6050   -5.0113  -27.7394 C   0  0  0  0  0  0  0  0  0  0  0  0
   -9.4777   -4.1405  -26.5247 C   0  0  0  0  0  0  0  0  0  0  0  0
   -8.7614   -4.6493  -25.3090 C   0  0  0  0  0  0  0  0  0  0  0  0
  9 10  1  0  0  0
 10 11  1  0  0  0
 10  1  1  0  0  0
  1  2  1  0  0  0
  2  3  1  0  0  0
  3  4  1  0  0  0
  4  5  1  0  0  0
  5  6  2  0  0  0
  5 12  1  0  0  0
 12 13  1  0  0  0
 13 14  2  0  0  0
 14 15  1  0  0  0
 15 16  2  0  0  0
 16 17  1  0  0  0
 17 18  2  0  0  0
 18 19  1  0  0  0
 19 20  2  0  0  0
 20 21  1  0  0  0
 21 22  2  0  0  0
  4  7  1  0  0  0
  7  8  1  0  0  0
  8  1  1  0  0  0
 22 13  1  0  0  0
 22 17  1  0  0  0
M  END
> <minimizedAffinity>
-6.72447

> <CNNscore>
0.4140983224

> <CNNaffinity>
4.9543008804

> <CNN_VS>
2.0515677929

> <CNNaffinity_variance>
0.3581449986

$$$$



 22 24  0  0  0  0  0  0  0  0999 V2000
   -3.1666    2.1664  -20.6262 C   0  0  0  0  0  0  0  0  0  0  0  0
   -4.0752    2.4420  -21.7874 C   0  0  0  0  0  0  0  0  0  0  0  0
   -5.3933    1.7338  -21.8930 C   0  0  0  0  0  0  0  0  0  0  0  0
   -5.8028    0.7501  -20.8373 N   0  0  0  0  0  0  0  0  0  0  0  0
   -7.1209    0.0419  -20.9428 C   0  0  0  0  0  0  0  0  0  0  0  0
   -7.5304   -0.9419  -19.8871 O   0  0  0  0  0  0  0  0  0  0  0  0
   -4.8942    0.4744  -19.6760 C   0  0  0  0  0  0  0  0  0  0  0  0
   -3.5761    1.1826  -19.5705 C   0  0  0  0  0  0  0  0  0  0  0  0
   -0.6782    2.1894  -19.8797 C   0  0  0  0  0  0  0  0  0  0  0  0
   -1.8485    2.8745  -20.5207 C   0  0  0  0  0  0  0  0  0  0  0  0
   -1.7007    4.2679  -21.0563 C   0  0  0  0  0  0  0  0  0  0  0  0
   -8.0295    0.3176  -22.1040 C   0  0  0  0  0  0  0  0  0  0  0  0
   -9.1106   -0.6598  -22.4589 C   0  0  0  0  0  0  0  0  0  0  0  0
   -8.8321   -2.1332  -22.4195 C   0  0  0  0  0  0  0  0  0  0  0  0
   -9.9132   -3.1106  -22.7744 N   0  0  0  0  0  0  0  0  0  0  0  0
  -11.2727   -2.6147  -23.1688 C   0  0  0  0  0  0  0  0  0  0  0  0
  -11.5513   -1.1412  -23.2082 C   0  0  0  0  0  0  0  0  0  0  0  0
  -12.9108   -0.6453  -23.6026 C   0  0  0  0  0  0  0  0  0  0  0  0
  -13.1893    0.8281  -23.6420 C   0  0  0  0  0  0  0  0  0  0  0  0
  -12.1083    1.8055  -23.2871 C   0  0  0  0  0  0  0  0  0  0  0  0
  -10.7487    1.3095  -22.8928 C   0  0  0  0  0  0  0  0  0  0  0  0
  -10.4702   -0.1638  -22.8533 C   0  0  0  0  0  0  0  0  0  0  0  0
  9 10  1  0  0  0
 10 11  1  0  0  0
 10  1  1  0  0  0
  1  2  1  0  0  0
  2  3  1  0  0  0
  3  4  1  0  0  0
  4  5  1  0  0  0
  5  6  2  0  0  0
  5 12  1  0  0  0
 12 13  1  0  0  0
 13 14  2  0  0  0
 14 15  1  0  0  0
 15 16  2  0  0  0
 16 17  1  0  0  0
 17 18  2  0  0  0
 18 19  1  0  0  0
 19 20  2  0  0  0
 20 21  1  0  0  0
 21 22  2  0  0  0
  4  7  1  0  0  0
  7  8  1  0  0  0
  8  1  1  0  0  0
 22 13  1  0  0  0
 22 17  1  0  0  0
M  END
> <minimizedAffinity>
-6.68511

> <CNNscore>
0.3538089693

> <CNNaffinity>
4.6141428947

> <CNN_VS>
1.6325250864

> <CNNaffinity_variance>
0.3297319114

$$$$
