


 22 24  0  0  0  0  0  0  0  0999 V2000
   11.0676   -1.6667   24.6133 C   0  0  0  0  0  0  0  0  0  0  0  0
    9.7722   -2.3274   24.2453 C   0  0  0  0  0  0  0  0  0  0  0  0
    8.8135   -1.6360   23.3217 C   0  0  0  0  0  0  0  0  0  0  0  0
    9.1502   -0.2840   22.7662 N   0  0  0  0  0  0  0  0  0  0  0  0
    8.1915    0.4074   21.8427 C   0  0  0  0  0  0  0  0  0  0  0  0
    8.5282    1.7594   21.2871 O   0  0  0  0  0  0  0  0  0  0  0  0
   10.4456    0.3767   23.1342 C   0  0  0  0  0  0  0  0  0  0  0  0
   11.4043   -0.3146   24.0577 C   0  0  0  0  0  0  0  0  0  0  0  0
   13.4454   -1.8828   25.6375 C   0  0  0  0  0  0  0  0  0  0  0  0
   12.0263   -2.3580   25.5368 C   0  0  0  0  0  0  0  0  0  0  0  0
   11.5658   -3.5247   26.3596 C   0  0  0  0  0  0  0  0  0  0  0  0
    6.8961   -0.2533   21.4747 C   0  0  0  0  0  0  0  0  0  0  0  0
    6.1518    0.1861   20.2487 C   0  0  0  0  0  0  0  0  0  0  0  0
    6.6991   -0.1251   18.8873 C   0  0  0  0  0  0  0  0  0  0  0  0
    5.9547    0.3144   17.6613 N   0  0  0  0  0  0  0  0  0  0  0  0
    4.6632    1.0650   17.7969 C   0  0  0  0  0  0  0  0  0  0  0  0
    4.1159    1.3762   19.1584 C   0  0  0  0  0  0  0  0  0  0  0  0
    2.8243    2.1268   19.2939 C   0  0  0  0  0  0  0  0  0  0  0  0
    2.2771    2.4380   20.6554 C   0  0  0  0  0  0  0  0  0  0  0  0
    3.0214    1.9986   21.8813 C   0  0  0  0  0  0  0  0  0  0  0  0
    4.3129    1.2479   21.7458 C   0  0  0  0  0  0  0  0  0  0  0  0
    4.8602    0.9368   20.3843 C   0  0  0  0  0  0  0  0  0  0  0  0
  9 10  1  0  0  0
 10 11  1  0  0  0
 10  1  1  0  0  0
  1  2  1  0  0  0
  2  3  1  0  0  0
  3  4  1  0  0  0
  4  5  1  0  0  0
  5  6  2  0  0  0
  5 12  1  0  0  0
 12 13  1  0  0  0
 13 14  2  0  0  0
 14 15  1  0  0  0
 15 16  2  0  0  0
 16 17  1  0  0  0
 17 18  2  0  0  0
 18 19  1  0  0  0
 19 20  2  0  0  0
 20 21  1  0  0  0
 21 22  2  0  0  0
  4  7  1  0  0  0
  7  8  1  0  0  0
  8  1  1  0  0  0
 22 13  1  0  0  0
 22 17  1  0  0  0
M  END
> <minimizedAffinity>
-7.57763

> <CNNscore>
0.8193092942

> <CNNaffinity>
5.6766672134

> <CNN_VS>
4.6509461403

> <CNNaffinity_variance>
0.0896927863

$$$$



 22 24  0  0  0  0  0  0  0  0999 V2000
   11.0118   -2.2463   24.6643 C   0  0  0  0  0  0  0  0  0  0  0  0
   11.1698   -1.0980   23.7122 C   0  0  0  0  0  0  0  0  0  0  0  0
   10.0504   -0.7358   22.7817 C   0  0  0  0  0  0  0  0  0  0  0  0
    8.7731   -1.5218   22.8033 N   0  0  0  0  0  0  0  0  0  0  0  0
    7.6537   -1.1596   21.8728 C   0  0  0  0  0  0  0  0  0  0  0  0
    6.3763   -1.9457   21.8945 O   0  0  0  0  0  0  0  0  0  0  0  0
    8.6150   -2.6701   23.7555 C   0  0  0  0  0  0  0  0  0  0  0  0
    9.7344   -3.0323   24.6860 C   0  0  0  0  0  0  0  0  0  0  0  0
   13.4078   -1.8212   25.5745 C   0  0  0  0  0  0  0  0  0  0  0  0
   12.1312   -2.6085   25.5948 C   0  0  0  0  0  0  0  0  0  0  0  0
   11.9739   -3.7580   26.5455 C   0  0  0  0  0  0  0  0  0  0  0  0
    7.8116   -0.0114   20.9207 C   0  0  0  0  0  0  0  0  0  0  0  0
    6.7181    0.3103   19.9457 C   0  0  0  0  0  0  0  0  0  0  0  0
    6.6708   -0.3828   18.6163 C   0  0  0  0  0  0  0  0  0  0  0  0
    5.5773   -0.0611   17.6412 N   0  0  0  0  0  0  0  0  0  0  0  0
    4.5311    0.9536   17.9956 C   0  0  0  0  0  0  0  0  0  0  0  0
    4.5783    1.6468   19.3251 C   0  0  0  0  0  0  0  0  0  0  0  0
    3.5321    2.6615   19.6794 C   0  0  0  0  0  0  0  0  0  0  0  0
    3.5794    3.3546   21.0088 C   0  0  0  0  0  0  0  0  0  0  0  0
    4.6729    3.0329   21.9839 C   0  0  0  0  0  0  0  0  0  0  0  0
    5.7192    2.0181   21.6295 C   0  0  0  0  0  0  0  0  0  0  0  0
    5.6719    1.3251   20.3001 C   0  0  0  0  0  0  0  0  0  0  0  0
  9 10  1  0  0  0
 10 11  1  0  0  0
 10  1  1  0  0  0
  1  2  1  0  0  0
  2  3  1  0  0  0
  3  4  1  0  0  0
  4  5  1  0  0  0
  5  6  2  0  0  0
  5 12  1  0  0  0
 12 13  1  0  0  0
 13 14  2  0  0  0
 14 15  1  0  0  0
 15 16  2  0  0  0
 16 17  1  0  0  0
 17 18  2  0  0  0
 18 19  1  0  0  0
 19 20  2  0  0  0
 20 21  1  0  0  0
 21 22  2  0  0  0
  4  7  1  0  0  0
  7  8  1  0  0  0
  8  1  1  0  0  0
 22 13  1  0  0  0
 22 17  1  0  0  0
M  END
> <minimizedAffinity>
-7.41688

> <CNNscore>
0.7373772860

> <CNNaffinity>
5.5240588188

> <CNN_VS>
4.0733156204

> <CNNaffinity_variance>
0.0572292916

$$$$



 22 24  0  0  0  0  0  0  0  0999 V2000
    9.9625    4.3447   22.9158 C   0  0  0  0  0  0  0  0  0  0  0  0
   11.0048    3.2755   22.7737 C   0  0  0  0  0  0  0  0  0  0  0  0
   10.6012    1.8308   22.7661 C   0  0  0  0  0  0  0  0  0  0  0  0
    9.1552    1.4554   22.9006 N   0  0  0  0  0  0  0  0  0  0  0  0
    8.7516    0.0107   22.8930 C   0  0  0  0  0  0  0  0  0  0  0  0
    7.3056   -0.3647   23.0274 O   0  0  0  0  0  0  0  0  0  0  0  0
    8.1128    2.5246   23.0427 C   0  0  0  0  0  0  0  0  0  0  0  0
    8.5164    3.9692   23.0503 C   0  0  0  0  0  0  0  0  0  0  0  0
   11.5296    6.2474   22.0950 C   0  0  0  0  0  0  0  0  0  0  0  0
   10.3661    5.7893   22.9234 C   0  0  0  0  0  0  0  0  0  0  0  0
    9.6060    6.7760   23.7595 C   0  0  0  0  0  0  0  0  0  0  0  0
    9.7940   -1.0585   22.7509 C   0  0  0  0  0  0  0  0  0  0  0  0
    9.8441   -2.1923   23.7317 C   0  0  0  0  0  0  0  0  0  0  0  0
    8.7080   -3.1688   23.8079 C   0  0  0  0  0  0  0  0  0  0  0  0
    8.7581   -4.3025   24.7887 N   0  0  0  0  0  0  0  0  0  0  0  0
    9.9441   -4.4598   25.6934 C   0  0  0  0  0  0  0  0  0  0  0  0
   11.0802   -3.4832   25.6173 C   0  0  0  0  0  0  0  0  0  0  0  0
   12.2663   -3.6405   26.5220 C   0  0  0  0  0  0  0  0  0  0  0  0
   13.4023   -2.6640   26.4458 C   0  0  0  0  0  0  0  0  0  0  0  0
   13.3523   -1.5302   25.4650 C   0  0  0  0  0  0  0  0  0  0  0  0
   12.1662   -1.3730   24.5603 C   0  0  0  0  0  0  0  0  0  0  0  0
   11.0302   -2.3495   24.6364 C   0  0  0  0  0  0  0  0  0  0  0  0
  9 10  1  0  0  0
 10 11  1  0  0  0
 10  1  1  0  0  0
  1  2  1  0  0  0
  2  3  1  0  0  0
  3  4  1  0  0  0
  4  5  1  0  0  0
  5  6  2  0  0  0
  5 12  1  0  0  0
 12 13  1  0  0  0
 13 14  2  0  0  0
 14 15  1  0  0  0
 15 16  2  0  0  0
 16 17  1  0  0  0
 17 18  2  0  0  0
 18 19  1  0  0  0
 19 20  2  0  0  0
 20 21  1  0  0  0
 21 22  2  0  0  0
  4  7  1  0  0  0
  7  8  1  0  0  0
  8  1  1  0  0  0
 22 13  1  0  0  0
 22 17  1  0  0  0
M  END
> <minimizedAffinity>
-6.74798

> <CNNscore>
0.5103002787

> <CNNaffinity>
5.5242571831

> <CNN_VS>
2.8190300465

> <CNNaffinity_variance>
0.0627725795

$$$$



 22 24  0  0  0  0  0  0  0  0999 V2000
    9.8235    4.7142   22.9551 C   0  0  0  0  0  0  0  0  0  0  0  0
   10.9410    3.7754   22.6092 C   0  0  0  0  0  0  0  0  0  0  0  0
   10.7027    2.2944   22.6061 C   0  0  0  0  0  0  0  0  0  0  0  0
    9.3468    1.7523   22.9490 N   0  0  0  0  0  0  0  0  0  0  0  0
    9.1084    0.2714   22.9459 C   0  0  0  0  0  0  0  0  0  0  0  0
    7.7524   -0.2707   23.2888 O   0  0  0  0  0  0  0  0  0  0  0  0
    8.2291    2.6912   23.2949 C   0  0  0  0  0  0  0  0  0  0  0  0
    8.4675    4.1721   23.2980 C   0  0  0  0  0  0  0  0  0  0  0  0
   11.1965    6.7738   22.1658 C   0  0  0  0  0  0  0  0  0  0  0  0
   10.0619    6.1951   22.9582 C   0  0  0  0  0  0  0  0  0  0  0  0
    9.1656    7.0974   23.7536 C   0  0  0  0  0  0  0  0  0  0  0  0
   10.2259   -0.6674   22.6000 C   0  0  0  0  0  0  0  0  0  0  0  0
   11.1710   -1.1340   23.6673 C   0  0  0  0  0  0  0  0  0  0  0  0
   12.4726   -0.4196   23.8811 C   0  0  0  0  0  0  0  0  0  0  0  0
   13.4177   -0.8862   24.9484 N   0  0  0  0  0  0  0  0  0  0  0  0
   13.0613   -2.0670   25.8019 C   0  0  0  0  0  0  0  0  0  0  0  0
   11.7597   -2.7814   25.5881 C   0  0  0  0  0  0  0  0  0  0  0  0
   11.4033   -3.9622   26.4417 C   0  0  0  0  0  0  0  0  0  0  0  0
   10.1018   -4.6765   26.2279 C   0  0  0  0  0  0  0  0  0  0  0  0
    9.1566   -4.2100   25.1606 C   0  0  0  0  0  0  0  0  0  0  0  0
    9.5130   -3.0292   24.3071 C   0  0  0  0  0  0  0  0  0  0  0  0
   10.8146   -2.3149   24.5209 C   0  0  0  0  0  0  0  0  0  0  0  0
  9 10  1  0  0  0
 10 11  1  0  0  0
 10  1  1  0  0  0
  1  2  1  0  0  0
  2  3  1  0  0  0
  3  4  1  0  0  0
  4  5  1  0  0  0
  5  6  2  0  0  0
  5 12  1  0  0  0
 12 13  1  0  0  0
 13 14  2  0  0  0
 14 15  1  0  0  0
 15 16  2  0  0  0
 16 17  1  0  0  0
 17 18  2  0  0  0
 18 19  1  0  0  0
 19 20  2  0  0  0
 20 21  1  0  0  0
 21 22  2  0  0  0
  4  7  1  0  0  0
  7  8  1  0  0  0
  8  1  1  0  0  0
 22 13  1  0  0  0
 22 17  1  0  0  0
M  END
> <minimizedAffinity>
-6.44457

> <CNNscore>
0.5027780533

> <CNNaffinity>
5.5544290543

> <CNN_VS>
2.7926449776

> <CNNaffinity_variance>
0.0385379083

$$$$



 22 24  0  0  0  0  0  0  0  0999 V2000
    6.4953    2.3010   26.2351 C   0  0  0  0  0  0  0  0  0  0  0  0
    7.0715    0.9164   26.2638 C   0  0  0  0  0  0  0  0  0  0  0  0
    7.8188    0.3902   25.0745 C   0  0  0  0  0  0  0  0  0  0  0  0
    7.9900    1.2486   23.8564 N   0  0  0  0  0  0  0  0  0  0  0  0
    8.7373    0.7224   22.6670 C   0  0  0  0  0  0  0  0  0  0  0  0
    8.9085    1.5809   21.4489 O   0  0  0  0  0  0  0  0  0  0  0  0
    7.4138    2.6333   23.8276 C   0  0  0  0  0  0  0  0  0  0  0  0
    6.6664    3.1595   25.0170 C   0  0  0  0  0  0  0  0  0  0  0  0
    4.6777    3.8618   27.2401 C   0  0  0  0  0  0  0  0  0  0  0  0
    5.7479    2.8271   27.4245 C   0  0  0  0  0  0  0  0  0  0  0  0
    6.0709    2.3186   28.7983 C   0  0  0  0  0  0  0  0  0  0  0  0
    9.3135   -0.6622   22.6957 C   0  0  0  0  0  0  0  0  0  0  0  0
   10.5812   -0.9315   23.4510 C   0  0  0  0  0  0  0  0  0  0  0  0
   11.7834   -0.0613   23.2331 C   0  0  0  0  0  0  0  0  0  0  0  0
   13.0511   -0.3306   23.9884 N   0  0  0  0  0  0  0  0  0  0  0  0
   13.1166   -1.4701   24.9616 C   0  0  0  0  0  0  0  0  0  0  0  0
   11.9144   -2.3403   25.1796 C   0  0  0  0  0  0  0  0  0  0  0  0
   11.9799   -3.4798   26.1529 C   0  0  0  0  0  0  0  0  0  0  0  0
   10.7777   -4.3500   26.3708 C   0  0  0  0  0  0  0  0  0  0  0  0
    9.5100   -4.0807   25.6155 C   0  0  0  0  0  0  0  0  0  0  0  0
    9.4445   -2.9412   24.6423 C   0  0  0  0  0  0  0  0  0  0  0  0
   10.6467   -2.0710   24.4243 C   0  0  0  0  0  0  0  0  0  0  0  0
  9 10  1  0  0  0
 10 11  1  0  0  0
 10  1  1  0  0  0
  1  2  1  0  0  0
  2  3  1  0  0  0
  3  4  1  0  0  0
  4  5  1  0  0  0
  5  6  2  0  0  0
  5 12  1  0  0  0
 12 13  1  0  0  0
 13 14  2  0  0  0
 14 15  1  0  0  0
 15 16  2  0  0  0
 16 17  1  0  0  0
 17 18  2  0  0  0
 18 19  1  0  0  0
 19 20  2  0  0  0
 20 21  1  0  0  0
 21 22  2  0  0  0
  4  7  1  0  0  0
  7  8  1  0  0  0
  8  1  1  0  0  0
 22 13  1  0  0  0
 22 17  1  0  0  0
M  END
> <minimizedAffinity>
-6.11242

> <CNNscore>
0.4856389761

> <CNNaffinity>
5.3142862320

> <CNN_VS>
2.5808246136

> <CNNaffinity_variance>
0.0627204105

$$$$



 22 24  0  0  0  0  0  0  0  0999 V2000
    5.4696    0.8473   19.8744 C   0  0  0  0  0  0  0  0  0  0  0  0
    6.6477    0.0088   19.4755 C   0  0  0  0  0  0  0  0  0  0  0  0
    7.6098   -0.4773   20.5185 C   0  0  0  0  0  0  0  0  0  0  0  0
    7.3940   -0.1251   21.9604 N   0  0  0  0  0  0  0  0  0  0  0  0
    8.3561   -0.6113   23.0034 C   0  0  0  0  0  0  0  0  0  0  0  0
    8.1402   -0.2590   24.4455 O   0  0  0  0  0  0  0  0  0  0  0  0
    6.2159    0.7134   22.3594 C   0  0  0  0  0  0  0  0  0  0  0  0
    5.2537    1.1996   21.3164 C   0  0  0  0  0  0  0  0  0  0  0  0
    4.7796    1.0717   17.3797 C   0  0  0  0  0  0  0  0  0  0  0  0
    4.5075    1.3335   18.8314 C   0  0  0  0  0  0  0  0  0  0  0  0
    3.2732    2.0815   19.2401 C   0  0  0  0  0  0  0  0  0  0  0  0
    9.5341   -1.4497   22.6045 C   0  0  0  0  0  0  0  0  0  0  0  0
   10.7715   -1.4564   23.4524 C   0  0  0  0  0  0  0  0  0  0  0  0
   11.8672   -0.4667   23.1879 C   0  0  0  0  0  0  0  0  0  0  0  0
   13.1046   -0.4734   24.0358 N   0  0  0  0  0  0  0  0  0  0  0  0
   13.2463   -1.4697   25.1481 C   0  0  0  0  0  0  0  0  0  0  0  0
   12.1505   -2.4594   25.4126 C   0  0  0  0  0  0  0  0  0  0  0  0
   12.2922   -3.4557   26.5249 C   0  0  0  0  0  0  0  0  0  0  0  0
   11.1965   -4.4454   26.7893 C   0  0  0  0  0  0  0  0  0  0  0  0
    9.9591   -4.4387   25.9415 C   0  0  0  0  0  0  0  0  0  0  0  0
    9.8174   -3.4424   24.8292 C   0  0  0  0  0  0  0  0  0  0  0  0
   10.9132   -2.4528   24.5647 C   0  0  0  0  0  0  0  0  0  0  0  0
  9 10  1  0  0  0
 10 11  1  0  0  0
 10  1  1  0  0  0
  1  2  1  0  0  0
  2  3  1  0  0  0
  3  4  1  0  0  0
  4  5  1  0  0  0
  5  6  2  0  0  0
  5 12  1  0  0  0
 12 13  1  0  0  0
 13 14  2  0  0  0
 14 15  1  0  0  0
 15 16  2  0  0  0
 16 17  1  0  0  0
 17 18  2  0  0  0
 18 19  1  0  0  0
 19 20  2  0  0  0
 20 21  1  0  0  0
 21 22  2  0  0  0
  4  7  1  0  0  0
  7  8  1  0  0  0
  8  1  1  0  0  0
 22 13  1  0  0  0
 22 17  1  0  0  0
M  END
> <minimizedAffinity>
-7.70548

> <CNNscore>
0.4717820883

> <CNNaffinity>
5.3746385574

> <CNN_VS>
2.5356581211

> <CNNaffinity_variance>
0.0414002053

$$$$



 22 24  0  0  0  0  0  0  0  0999 V2000
   11.3534   -1.4498   24.9016 C   0  0  0  0  0  0  0  0  0  0  0  0
    9.8823   -1.7260   24.8039 C   0  0  0  0  0  0  0  0  0  0  0  0
    9.0134   -0.8641   23.9366 C   0  0  0  0  0  0  0  0  0  0  0  0
    9.6156    0.2739   23.1670 N   0  0  0  0  0  0  0  0  0  0  0  0
    8.7467    1.1358   22.2998 C   0  0  0  0  0  0  0  0  0  0  0  0
    9.3489    2.2739   21.5302 O   0  0  0  0  0  0  0  0  0  0  0  0
   11.0867    0.5501   23.2647 C   0  0  0  0  0  0  0  0  0  0  0  0
   11.9557   -0.3118   24.1320 C   0  0  0  0  0  0  0  0  0  0  0  0
   11.6468   -3.5253   26.4366 C   0  0  0  0  0  0  0  0  0  0  0  0
   12.2223   -2.3117   25.7688 C   0  0  0  0  0  0  0  0  0  0  0  0
   13.6669   -1.9600   25.9683 C   0  0  0  0  0  0  0  0  0  0  0  0
    7.2756    0.8597   22.2021 C   0  0  0  0  0  0  0  0  0  0  0  0
    6.6349    0.6738   20.8586 C   0  0  0  0  0  0  0  0  0  0  0  0
    7.2158   -0.3027   19.8794 C   0  0  0  0  0  0  0  0  0  0  0  0
    6.5752   -0.4887   18.5359 N   0  0  0  0  0  0  0  0  0  0  0  0
    5.3537    0.3020   18.1715 C   0  0  0  0  0  0  0  0  0  0  0  0
    4.7727    1.2786   19.1508 C   0  0  0  0  0  0  0  0  0  0  0  0
    3.5512    2.0692   18.7865 C   0  0  0  0  0  0  0  0  0  0  0  0
    2.9703    3.0457   19.7657 C   0  0  0  0  0  0  0  0  0  0  0  0
    3.6110    3.2316   21.1092 C   0  0  0  0  0  0  0  0  0  0  0  0
    4.8325    2.4410   21.4735 C   0  0  0  0  0  0  0  0  0  0  0  0
    5.4134    1.4645   20.4943 C   0  0  0  0  0  0  0  0  0  0  0  0
  9 10  1  0  0  0
 10 11  1  0  0  0
 10  1  1  0  0  0
  1  2  1  0  0  0
  2  3  1  0  0  0
  3  4  1  0  0  0
  4  5  1  0  0  0
  5  6  2  0  0  0
  5 12  1  0  0  0
 12 13  1  0  0  0
 13 14  2  0  0  0
 14 15  1  0  0  0
 15 16  2  0  0  0
 16 17  1  0  0  0
 17 18  2  0  0  0
 18 19  1  0  0  0
 19 20  2  0  0  0
 20 21  1  0  0  0
 21 22  2  0  0  0
  4  7  1  0  0  0
  7  8  1  0  0  0
  8  1  1  0  0  0
 22 13  1  0  0  0
 22 17  1  0  0  0
M  END
> <minimizedAffinity>
-7.62860

> <CNNscore>
0.4665512145

> <CNNaffinity>
5.3452634811

> <CNN_VS>
2.4938392639

> <CNNaffinity_variance>
0.1445199102

$$$$



 22 24  0  0  0  0  0  0  0  0999 V2000
    5.9848   -4.2939   22.6771 C   0  0  0  0  0  0  0  0  0  0  0  0
    7.0306   -4.0475   23.7237 C   0  0  0  0  0  0  0  0  0  0  0  0
    7.5408   -2.6571   23.9614 C   0  0  0  0  0  0  0  0  0  0  0  0
    7.0051   -1.5132   23.1526 N   0  0  0  0  0  0  0  0  0  0  0  0
    7.5153   -0.1228   23.3903 C   0  0  0  0  0  0  0  0  0  0  0  0
    6.9795    1.0213   22.5814 O   0  0  0  0  0  0  0  0  0  0  0  0
    5.9592   -1.7595   22.1059 C   0  0  0  0  0  0  0  0  0  0  0  0
    5.4490   -3.1499   21.8681 C   0  0  0  0  0  0  0  0  0  0  0  0
    4.6691   -6.3788   23.4970 C   0  0  0  0  0  0  0  0  0  0  0  0
    5.4746   -5.6843   22.4393 C   0  0  0  0  0  0  0  0  0  0  0  0
    5.7700   -6.3803   21.1437 C   0  0  0  0  0  0  0  0  0  0  0  0
    8.5611    0.1236   24.4369 C   0  0  0  0  0  0  0  0  0  0  0  0
   10.0143    0.0960   24.0662 C   0  0  0  0  0  0  0  0  0  0  0  0
   10.5409    1.0390   23.0254 C   0  0  0  0  0  0  0  0  0  0  0  0
   11.9941    1.0114   22.6547 N   0  0  0  0  0  0  0  0  0  0  0  0
   12.9207    0.0406   23.3247 C   0  0  0  0  0  0  0  0  0  0  0  0
   12.3942   -0.9026   24.3655 C   0  0  0  0  0  0  0  0  0  0  0  0
   13.3207   -1.8733   25.0356 C   0  0  0  0  0  0  0  0  0  0  0  0
   12.7941   -2.8164   26.0763 C   0  0  0  0  0  0  0  0  0  0  0  0
   11.3409   -2.7887   26.4471 C   0  0  0  0  0  0  0  0  0  0  0  0
   10.4144   -1.8180   25.7770 C   0  0  0  0  0  0  0  0  0  0  0  0
   10.9410   -0.8749   24.7363 C   0  0  0  0  0  0  0  0  0  0  0  0
  9 10  1  0  0  0
 10 11  1  0  0  0
 10  1  1  0  0  0
  1  2  1  0  0  0
  2  3  1  0  0  0
  3  4  1  0  0  0
  4  5  1  0  0  0
  5  6  2  0  0  0
  5 12  1  0  0  0
 12 13  1  0  0  0
 13 14  2  0  0  0
 14 15  1  0  0  0
 15 16  2  0  0  0
 16 17  1  0  0  0
 17 18  2  0  0  0
 18 19  1  0  0  0
 19 20  2  0  0  0
 20 21  1  0  0  0
 21 22  2  0  0  0
  4  7  1  0  0  0
  7  8  1  0  0  0
  8  1  1  0  0  0
 22 13  1  0  0  0
 22 17  1  0  0  0
M  END
> <minimizedAffinity>
-6.54055

> <CNNscore>
0.4545491338

> <CNNaffinity>
5.5388689041

> <CNN_VS>
2.5176880360

> <CNNaffinity_variance>
0.1280068904

$$$$



 22 24  0  0  0  0  0  0  0  0999 V2000
    9.7681    4.3036   23.0541 C   0  0  0  0  0  0  0  0  0  0  0  0
    9.0996    2.9718   23.2248 C   0  0  0  0  0  0  0  0  0  0  0  0
    9.9045    1.7101   23.1237 C   0  0  0  0  0  0  0  0  0  0  0  0
   11.3780    1.7802   22.8519 N   0  0  0  0  0  0  0  0  0  0  0  0
   12.1829    0.5185   22.7508 C   0  0  0  0  0  0  0  0  0  0  0  0
   13.6564    0.5887   22.4790 O   0  0  0  0  0  0  0  0  0  0  0  0
   12.0466    3.1121   22.6812 C   0  0  0  0  0  0  0  0  0  0  0  0
   11.2417    4.3738   22.7823 C   0  0  0  0  0  0  0  0  0  0  0  0
    7.4817    5.4939   23.3785 C   0  0  0  0  0  0  0  0  0  0  0  0
    8.9632    5.5653   23.1552 C   0  0  0  0  0  0  0  0  0  0  0  0
    9.6399    6.8985   23.0331 C   0  0  0  0  0  0  0  0  0  0  0  0
   11.5143   -0.8133   22.9215 C   0  0  0  0  0  0  0  0  0  0  0  0
   11.8329   -1.6651   24.1145 C   0  0  0  0  0  0  0  0  0  0  0  0
   13.2611   -1.9580   24.4669 C   0  0  0  0  0  0  0  0  0  0  0  0
   13.5797   -2.8098   25.6599 N   0  0  0  0  0  0  0  0  0  0  0  0
   12.4701   -3.3685   26.5003 C   0  0  0  0  0  0  0  0  0  0  0  0
   11.0418   -3.0755   26.1479 C   0  0  0  0  0  0  0  0  0  0  0  0
    9.9321   -3.6343   26.9884 C   0  0  0  0  0  0  0  0  0  0  0  0
    8.5039   -3.3413   26.6359 C   0  0  0  0  0  0  0  0  0  0  0  0
    8.1853   -2.4895   25.4430 C   0  0  0  0  0  0  0  0  0  0  0  0
    9.2949   -1.9308   24.6025 C   0  0  0  0  0  0  0  0  0  0  0  0
   10.7232   -2.2238   24.9550 C   0  0  0  0  0  0  0  0  0  0  0  0
  9 10  1  0  0  0
 10 11  1  0  0  0
 10  1  1  0  0  0
  1  2  1  0  0  0
  2  3  1  0  0  0
  3  4  1  0  0  0
  4  5  1  0  0  0
  5  6  2  0  0  0
  5 12  1  0  0  0
 12 13  1  0  0  0
 13 14  2  0  0  0
 14 15  1  0  0  0
 15 16  2  0  0  0
 16 17  1  0  0  0
 17 18  2  0  0  0
 18 19  1  0  0  0
 19 20  2  0  0  0
 20 21  1  0  0  0
 21 22  2  0  0  0
  4  7  1  0  0  0
  7  8  1  0  0  0
  8  1  1  0  0  0
 22 13  1  0  0  0
 22 17  1  0  0  0
M  END
> <minimizedAffinity>
-6.88322

> <CNNscore>
0.4544006586

> <CNNaffinity>
5.3717074394

> <CNN_VS>
2.4409074783

> <CNNaffinity_variance>
0.2060760260

$$$$
