


 40 45  0  0  0  0  0  0  0  0999 V2000
    7.3829   -2.4706   22.3135 N   0  0  0  0  0  0  0  0  0  0  0  0
    8.5404   -1.5581   22.5919 C   0  0  0  0  0  0  0  0  0  0  0  0
    8.3996   -0.0805   22.3753 C   0  0  0  0  0  0  0  0  0  0  0  0
    8.4078    1.4099   22.2065 C   0  0  0  0  0  0  0  0  0  0  0  0
    7.6710    2.3114   21.8587 O   0  0  0  0  0  0  0  0  0  0  0  0
    9.7654    1.9134   22.5983 N   0  0  0  0  0  0  0  0  0  0  0  0
   10.5962    0.7341   23.0092 C   0  0  0  0  0  0  0  0  0  0  0  0
    9.7521   -0.4982   22.8714 C   0  0  0  0  0  0  0  0  0  0  0  0
    7.1013    0.4846   21.8801 C   0  0  0  0  0  0  0  0  0  0  0  0
    6.9605    1.9622   21.6635 C   0  0  0  0  0  0  0  0  0  0  0  0
    5.6622    2.5272   21.1684 C   0  0  0  0  0  0  0  0  0  0  0  0
    5.5214    4.0048   20.9517 Cl  0  0  0  0  0  0  0  0  0  0  0  0
    4.5047    1.6147   20.8899 C   0  0  0  0  0  0  0  0  0  0  0  0
    4.6455    0.1371   21.1066 C   0  0  0  0  0  0  0  0  0  0  0  0
    5.9438   -0.4279   21.6017 C   0  0  0  0  0  0  0  0  0  0  0  0
    6.0846   -1.9055   21.8184 C   0  0  0  0  0  0  0  0  0  0  0  0
    4.9271   -2.8180   21.5399 O   0  0  0  0  0  0  0  0  0  0  0  0
   10.2134    3.3448   22.5820 C   0  0  0  0  0  0  0  0  0  0  0  0
   11.5079    3.7181   21.9224 C   0  0  0  0  0  0  0  0  0  0  0  0
   11.9559    5.1495   21.9061 N   0  0  0  0  0  0  0  0  0  0  0  0
   11.1095    6.2077   22.5494 C   0  0  0  0  0  0  0  0  0  0  0  0
    9.8150    5.8344   23.2090 C   0  0  0  0  0  0  0  0  0  0  0  0
    8.9685    6.8926   23.8523 C   0  0  0  0  0  0  0  0  0  0  0  0
    7.6741    6.5192   24.5118 C   0  0  0  0  0  0  0  0  0  0  0  0
    7.2260    5.0878   24.5281 C   0  0  0  0  0  0  0  0  0  0  0  0
    8.0725    4.0297   23.8848 C   0  0  0  0  0  0  0  0  0  0  0  0
    9.3670    4.4030   23.2253 C   0  0  0  0  0  0  0  0  0  0  0  0
    7.5237   -3.9482   22.5302 C   0  0  0  0  0  0  0  0  0  0  0  0
    5.1536   -5.0347   25.5222 C   0  0  0  0  0  0  0  0  0  0  0  0
    5.6233   -4.4168   24.2386 N   0  0  0  0  0  0  0  0  0  0  0  0
    7.0541   -4.5661   23.8138 C   0  0  0  0  0  0  0  0  0  0  0  0
    8.0153   -5.3332   24.6726 O   0  0  0  0  0  0  0  0  0  0  0  0
    4.9924   -3.9133   23.6749 H   0  0  0  0  0  0  0  0  0  0  0  0
   10.1847   -1.9018   23.1762 C   0  0  0  0  0  0  0  0  0  0  0  0
   11.1687   -2.1608   24.2782 C   0  0  0  0  0  0  0  0  0  0  0  0
   12.5161   -1.5023   24.2507 C   0  0  0  0  0  0  0  0  0  0  0  0
   13.5002   -1.7613   25.3527 C   0  0  0  0  0  0  0  0  0  0  0  0
   13.1368   -2.6789   26.4823 C   0  0  0  0  0  0  0  0  0  0  0  0
   11.7894   -3.3375   26.5099 C   0  0  0  0  0  0  0  0  0  0  0  0
   10.8053   -3.0784   25.4078 C   0  0  0  0  0  0  0  0  0  0  0  0
 29 30  1  0  0  0
 30 31  1  0  0  0
 31 32  2  0  0  0
 31 28  1  0  0  0
 28  1  1  0  0  0
  1  2  1  0  0  0
  3  2  1  0  0  0
  3  4  1  0  0  0
  4  5  2  0  0  0
  4  6  1  0  0  0
  6 18  1  0  0  0
 18 19  2  0  0  0
 19 20  1  0  0  0
 20 21  2  0  0  0
 21 22  1  0  0  0
 22 23  2  0  0  0
 23 24  1  0  0  0
 24 25  2  0  0  0
 25 26  1  0  0  0
 26 27  2  0  0  0
  6  7  1  0  0  0
  7  8  1  0  0  0
  8 34  1  0  0  0
 34 35  1  0  0  0
 35 36  2  0  0  0
 36 37  1  0  0  0
 37 38  2  0  0  0
 38 39  1  0  0  0
 39 40  2  0  0  0
  3  9  1  0  0  0
  9 10  2  0  0  0
 10 11  1  0  0  0
 11 12  1  0  0  0
 11 13  2  0  0  0
 13 14  1  0  0  0
 14 15  2  0  0  0
 15 16  1  0  0  0
 16 17  2  0  0  0
 16  1  1  0  0  0
  8  3  1  0  0  0
 40 35  1  0  0  0
 15  9  1  0  0  0
 27 18  1  0  0  0
 27 22  1  0  0  0
 30 33  1  0  0  0
M  END
> <minimizedAffinity>
-8.61368

> <CNNscore>
0.3605132103

> <CNNaffinity>
7.1104097366

> <CNN_VS>
2.5633966923

> <CNNaffinity_variance>
0.1400692165

$$$$



 40 45  0  0  0  0  0  0  0  0999 V2000
    9.0084    4.4077   23.1674 N   0  0  0  0  0  0  0  0  0  0  0  0
    8.1226    3.2275   23.4364 C   0  0  0  0  0  0  0  0  0  0  0  0
    8.6896    1.8394   23.3960 C   0  0  0  0  0  0  0  0  0  0  0  0
    9.1123    0.4002   23.3907 C   0  0  0  0  0  0  0  0  0  0  0  0
   10.1047   -0.2777   23.2122 O   0  0  0  0  0  0  0  0  0  0  0  0
    7.9094   -0.4375   23.7089 N   0  0  0  0  0  0  0  0  0  0  0  0
    6.7432    0.4840   23.9110 C   0  0  0  0  0  0  0  0  0  0  0  0
    7.2254    1.8912   23.7176 C   0  0  0  0  0  0  0  0  0  0  0  0
   10.1425    1.6315   23.0865 C   0  0  0  0  0  0  0  0  0  0  0  0
   10.7095    0.2434   23.0460 C   0  0  0  0  0  0  0  0  0  0  0  0
   12.1624    0.0355   22.7365 C   0  0  0  0  0  0  0  0  0  0  0  0
   12.7295   -1.3527   22.6961 Cl  0  0  0  0  0  0  0  0  0  0  0  0
   13.0483    1.2157   22.4675 C   0  0  0  0  0  0  0  0  0  0  0  0
   12.4813    2.6038   22.5080 C   0  0  0  0  0  0  0  0  0  0  0  0
   11.0284    2.8116   22.8175 C   0  0  0  0  0  0  0  0  0  0  0  0
   10.4613    4.1998   22.8580 C   0  0  0  0  0  0  0  0  0  0  0  0
   11.3472    5.3800   22.5889 O   0  0  0  0  0  0  0  0  0  0  0  0
    7.8782   -1.9339   23.8078 C   0  0  0  0  0  0  0  0  0  0  0  0
    6.9232   -2.7217   22.9610 C   0  0  0  0  0  0  0  0  0  0  0  0
    6.8920   -4.2182   23.0598 N   0  0  0  0  0  0  0  0  0  0  0  0
    7.8159   -4.9267   24.0056 C   0  0  0  0  0  0  0  0  0  0  0  0
    8.7710   -4.1388   24.8524 C   0  0  0  0  0  0  0  0  0  0  0  0
    9.6949   -4.8474   25.7982 C   0  0  0  0  0  0  0  0  0  0  0  0
   10.6499   -4.0594   26.6450 C   0  0  0  0  0  0  0  0  0  0  0  0
   10.6811   -2.5630   26.5461 C   0  0  0  0  0  0  0  0  0  0  0  0
    9.7572   -1.8545   25.6004 C   0  0  0  0  0  0  0  0  0  0  0  0
    8.8021   -2.6424   24.7535 C   0  0  0  0  0  0  0  0  0  0  0  0
    8.4414    5.7958   23.2079 C   0  0  0  0  0  0  0  0  0  0  0  0
   10.3437    7.8182   26.0435 C   0  0  0  0  0  0  0  0  0  0  0  0
   10.0947    6.9408   24.8527 N   0  0  0  0  0  0  0  0  0  0  0  0
    8.6904    6.6733   24.3988 C   0  0  0  0  0  0  0  0  0  0  0  0
    7.5349    7.2831   25.1357 O   0  0  0  0  0  0  0  0  0  0  0  0
   10.8531    6.5405   24.3690 H   0  0  0  0  0  0  0  0  0  0  0  0
    6.3899    3.1322   23.8266 C   0  0  0  0  0  0  0  0  0  0  0  0
    5.1718    3.2943   22.9667 C   0  0  0  0  0  0  0  0  0  0  0  0
    3.8391    3.5690   23.5980 C   0  0  0  0  0  0  0  0  0  0  0  0
    2.6209    3.7311   22.7379 C   0  0  0  0  0  0  0  0  0  0  0  0
    2.7353    3.6184   21.2466 C   0  0  0  0  0  0  0  0  0  0  0  0
    4.0679    3.3437   20.6152 C   0  0  0  0  0  0  0  0  0  0  0  0
    5.2862    3.1816   21.4752 C   0  0  0  0  0  0  0  0  0  0  0  0
 29 30  1  0  0  0
 30 31  1  0  0  0
 31 32  2  0  0  0
 31 28  1  0  0  0
 28  1  1  0  0  0
  1  2  1  0  0  0
  3  2  1  0  0  0
  3  4  1  0  0  0
  4  5  2  0  0  0
  4  6  1  0  0  0
  6 18  1  0  0  0
 18 19  2  0  0  0
 19 20  1  0  0  0
 20 21  2  0  0  0
 21 22  1  0  0  0
 22 23  2  0  0  0
 23 24  1  0  0  0
 24 25  2  0  0  0
 25 26  1  0  0  0
 26 27  2  0  0  0
  6  7  1  0  0  0
  7  8  1  0  0  0
  8 34  1  0  0  0
 34 35  1  0  0  0
 35 36  2  0  0  0
 36 37  1  0  0  0
 37 38  2  0  0  0
 38 39  1  0  0  0
 39 40  2  0  0  0
  3  9  1  0  0  0
  9 10  2  0  0  0
 10 11  1  0  0  0
 11 12  1  0  0  0
 11 13  2  0  0  0
 13 14  1  0  0  0
 14 15  2  0  0  0
 15 16  1  0  0  0
 16 17  2  0  0  0
 16  1  1  0  0  0
  8  3  1  0  0  0
 40 35  1  0  0  0
 15  9  1  0  0  0
 27 18  1  0  0  0
 27 22  1  0  0  0
 30 33  1  0  0  0
M  END
> <minimizedAffinity>
-7.37393

> <CNNscore>
0.2665063143

> <CNNaffinity>
6.8678984642

> <CNN_VS>
1.8303383589

> <CNNaffinity_variance>
0.2639401853

$$$$



 40 45  0  0  0  0  0  0  0  0999 V2000
    8.7241    0.4162   22.8463 N   0  0  0  0  0  0  0  0  0  0  0  0
    8.5784   -0.9055   23.5405 C   0  0  0  0  0  0  0  0  0  0  0  0
    7.2886   -1.2571   24.2208 C   0  0  0  0  0  0  0  0  0  0  0  0
    6.0662   -1.7451   24.9401 C   0  0  0  0  0  0  0  0  0  0  0  0
    4.9389   -1.3819   25.2118 O   0  0  0  0  0  0  0  0  0  0  0  0
    6.3617   -3.1124   25.4815 N   0  0  0  0  0  0  0  0  0  0  0  0
    7.7669   -3.4695   25.0968 C   0  0  0  0  0  0  0  0  0  0  0  0
    8.3397   -2.3228   24.3176 C   0  0  0  0  0  0  0  0  0  0  0  0
    6.1445   -0.2870   24.2069 C   0  0  0  0  0  0  0  0  0  0  0  0
    4.8548   -0.6386   24.8872 C   0  0  0  0  0  0  0  0  0  0  0  0
    3.7108    0.3314   24.8733 C   0  0  0  0  0  0  0  0  0  0  0  0
    2.4209   -0.0202   25.5536 Cl  0  0  0  0  0  0  0  0  0  0  0  0
    3.8565    1.6531   24.1790 C   0  0  0  0  0  0  0  0  0  0  0  0
    5.1463    2.0047   23.4987 C   0  0  0  0  0  0  0  0  0  0  0  0
    6.2903    1.0347   23.5127 C   0  0  0  0  0  0  0  0  0  0  0  0
    7.5801    1.3863   22.8323 C   0  0  0  0  0  0  0  0  0  0  0  0
    7.7259    2.7079   22.1381 O   0  0  0  0  0  0  0  0  0  0  0  0
    5.4179   -3.9718   26.2693 C   0  0  0  0  0  0  0  0  0  0  0  0
    4.7247   -5.1260   25.6079 C   0  0  0  0  0  0  0  0  0  0  0  0
    3.7809   -5.9853   26.3957 N   0  0  0  0  0  0  0  0  0  0  0  0
    3.5301   -5.6905   27.8448 C   0  0  0  0  0  0  0  0  0  0  0  0
    4.2232   -4.5363   28.5062 C   0  0  0  0  0  0  0  0  0  0  0  0
    3.9725   -4.2414   29.9555 C   0  0  0  0  0  0  0  0  0  0  0  0
    4.6656   -3.0872   30.6168 C   0  0  0  0  0  0  0  0  0  0  0  0
    5.6095   -2.2279   29.8290 C   0  0  0  0  0  0  0  0  0  0  0  0
    5.8602   -2.5227   28.3799 C   0  0  0  0  0  0  0  0  0  0  0  0
    5.1671   -3.6769   27.7185 C   0  0  0  0  0  0  0  0  0  0  0  0
   10.0139    0.7678   22.1659 C   0  0  0  0  0  0  0  0  0  0  0  0
   11.4322    4.4585   22.5089 C   0  0  0  0  0  0  0  0  0  0  0  0
   10.6250    3.2892   22.0279 N   0  0  0  0  0  0  0  0  0  0  0  0
   10.8211    1.9371   22.6469 C   0  0  0  0  0  0  0  0  0  0  0  0
   11.8244    1.7541   23.7470 O   0  0  0  0  0  0  0  0  0  0  0  0
    9.9665    3.4093   21.3060 H   0  0  0  0  0  0  0  0  0  0  0  0
    9.7211   -2.2540   23.7372 C   0  0  0  0  0  0  0  0  0  0  0  0
   10.9170   -2.4422   24.6227 C   0  0  0  0  0  0  0  0  0  0  0  0
   10.8769   -3.4496   25.7334 C   0  0  0  0  0  0  0  0  0  0  0  0
   12.0728   -3.6377   26.6189 C   0  0  0  0  0  0  0  0  0  0  0  0
   13.3090   -2.8184   26.3939 C   0  0  0  0  0  0  0  0  0  0  0  0
   13.3492   -1.8110   25.2834 C   0  0  0  0  0  0  0  0  0  0  0  0
   12.1532   -1.6228   24.3977 C   0  0  0  0  0  0  0  0  0  0  0  0
 29 30  1  0  0  0
 30 31  1  0  0  0
 31 32  2  0  0  0
 31 28  1  0  0  0
 28  1  1  0  0  0
  1  2  1  0  0  0
  3  2  1  0  0  0
  3  4  1  0  0  0
  4  5  2  0  0  0
  4  6  1  0  0  0
  6 18  1  0  0  0
 18 19  2  0  0  0
 19 20  1  0  0  0
 20 21  2  0  0  0
 21 22  1  0  0  0
 22 23  2  0  0  0
 23 24  1  0  0  0
 24 25  2  0  0  0
 25 26  1  0  0  0
 26 27  2  0  0  0
  6  7  1  0  0  0
  7  8  1  0  0  0
  8 34  1  0  0  0
 34 35  1  0  0  0
 35 36  2  0  0  0
 36 37  1  0  0  0
 37 38  2  0  0  0
 38 39  1  0  0  0
 39 40  2  0  0  0
  3  9  1  0  0  0
  9 10  2  0  0  0
 10 11  1  0  0  0
 11 12  1  0  0  0
 11 13  2  0  0  0
 13 14  1  0  0  0
 14 15  2  0  0  0
 15 16  1  0  0  0
 16 17  2  0  0  0
 16  1  1  0  0  0
  8  3  1  0  0  0
 40 35  1  0  0  0
 15  9  1  0  0  0
 27 18  1  0  0  0
 27 22  1  0  0  0
 30 33  1  0  0  0
M  END
> <minimizedAffinity>
-7.62072

> <CNNscore>
0.2295730710

> <CNNaffinity>
6.7451400757

> <CNN_VS>
1.5485025644

> <CNNaffinity_variance>
0.0864979699

$$$$



 40 45  0  0  0  0  0  0  0  0999 V2000
   10.0063    0.4247   22.6824 N   0  0  0  0  0  0  0  0  0  0  0  0
    8.8479   -0.5170   22.5363 C   0  0  0  0  0  0  0  0  0  0  0  0
    8.7861   -1.7645   23.3669 C   0  0  0  0  0  0  0  0  0  0  0  0
    8.5886   -3.0435   24.1252 C   0  0  0  0  0  0  0  0  0  0  0  0
    9.1369   -3.7150   24.9766 O   0  0  0  0  0  0  0  0  0  0  0  0
    7.3023   -3.6620   23.6639 N   0  0  0  0  0  0  0  0  0  0  0  0
    6.7048   -2.7652   22.6205 C   0  0  0  0  0  0  0  0  0  0  0  0
    7.6218   -1.5925   22.4370 C   0  0  0  0  0  0  0  0  0  0  0  0
    9.8828   -2.0703   24.3436 C   0  0  0  0  0  0  0  0  0  0  0  0
    9.8211   -3.3178   25.1742 C   0  0  0  0  0  0  0  0  0  0  0  0
   10.9177   -3.6236   26.1508 C   0  0  0  0  0  0  0  0  0  0  0  0
   10.8560   -4.8711   26.9815 Cl  0  0  0  0  0  0  0  0  0  0  0  0
   12.0761   -2.6819   26.2968 C   0  0  0  0  0  0  0  0  0  0  0  0
   12.1379   -1.4344   25.4662 C   0  0  0  0  0  0  0  0  0  0  0  0
   11.0412   -1.1286   24.4896 C   0  0  0  0  0  0  0  0  0  0  0  0
   11.1029    0.1189   23.6590 C   0  0  0  0  0  0  0  0  0  0  0  0
   12.2613    1.0606   23.8050 O   0  0  0  0  0  0  0  0  0  0  0  0
    6.7164   -4.9510   24.1591 C   0  0  0  0  0  0  0  0  0  0  0  0
    7.2551   -6.2597   23.6620 C   0  0  0  0  0  0  0  0  0  0  0  0
    6.6692   -7.5487   24.1572 N   0  0  0  0  0  0  0  0  0  0  0  0
    5.5445   -7.5290   25.1495 C   0  0  0  0  0  0  0  0  0  0  0  0
    5.0058   -6.2203   25.6466 C   0  0  0  0  0  0  0  0  0  0  0  0
    3.8810   -6.2006   26.6390 C   0  0  0  0  0  0  0  0  0  0  0  0
    3.3424   -4.8919   27.1360 C   0  0  0  0  0  0  0  0  0  0  0  0
    3.9283   -3.6029   26.6409 C   0  0  0  0  0  0  0  0  0  0  0  0
    5.0529   -3.6226   25.6485 C   0  0  0  0  0  0  0  0  0  0  0  0
    5.5917   -4.9313   25.1514 C   0  0  0  0  0  0  0  0  0  0  0  0
   10.0680    1.6723   21.8517 C   0  0  0  0  0  0  0  0  0  0  0  0
   11.1530    5.3143   22.9956 C   0  0  0  0  0  0  0  0  0  0  0  0
   11.1828    3.9693   22.3321 N   0  0  0  0  0  0  0  0  0  0  0  0
   10.0382    3.0172   22.5151 C   0  0  0  0  0  0  0  0  0  0  0  0
    8.8638    3.4102   23.3616 O   0  0  0  0  0  0  0  0  0  0  0  0
   11.9535    3.7114   21.7766 H   0  0  0  0  0  0  0  0  0  0  0  0
    7.4115   -0.4486   21.4897 C   0  0  0  0  0  0  0  0  0  0  0  0
    6.0538    0.1749   21.3564 C   0  0  0  0  0  0  0  0  0  0  0  0
    5.4877    0.4558   19.9960 C   0  0  0  0  0  0  0  0  0  0  0  0
    4.1300    1.0793   19.8628 C   0  0  0  0  0  0  0  0  0  0  0  0
    3.3384    1.4220   21.0900 C   0  0  0  0  0  0  0  0  0  0  0  0
    3.9044    1.1412   22.4503 C   0  0  0  0  0  0  0  0  0  0  0  0
    5.2622    0.5176   22.5836 C   0  0  0  0  0  0  0  0  0  0  0  0
 29 30  1  0  0  0
 30 31  1  0  0  0
 31 32  2  0  0  0
 31 28  1  0  0  0
 28  1  1  0  0  0
  1  2  1  0  0  0
  3  2  1  0  0  0
  3  4  1  0  0  0
  4  5  2  0  0  0
  4  6  1  0  0  0
  6 18  1  0  0  0
 18 19  2  0  0  0
 19 20  1  0  0  0
 20 21  2  0  0  0
 21 22  1  0  0  0
 22 23  2  0  0  0
 23 24  1  0  0  0
 24 25  2  0  0  0
 25 26  1  0  0  0
 26 27  2  0  0  0
  6  7  1  0  0  0
  7  8  1  0  0  0
  8 34  1  0  0  0
 34 35  1  0  0  0
 35 36  2  0  0  0
 36 37  1  0  0  0
 37 38  2  0  0  0
 38 39  1  0  0  0
 39 40  2  0  0  0
  3  9  1  0  0  0
  9 10  2  0  0  0
 10 11  1  0  0  0
 11 12  1  0  0  0
 11 13  2  0  0  0
 13 14  1  0  0  0
 14 15  2  0  0  0
 15 16  1  0  0  0
 16 17  2  0  0  0
 16  1  1  0  0  0
  8  3  1  0  0  0
 40 35  1  0  0  0
 15  9  1  0  0  0
 27 18  1  0  0  0
 27 22  1  0  0  0
 30 33  1  0  0  0
M  END
> <minimizedAffinity>
-8.80468

> <CNNscore>
0.2239468247

> <CNNaffinity>
6.7819886208

> <CNN_VS>
1.5188047886

> <CNNaffinity_variance>
0.3811838031

$$$$



 40 45  0  0  0  0  0  0  0  0999 V2000
    5.2502    2.3601   23.1861 N   0  0  0  0  0  0  0  0  0  0  0  0
    6.5951    1.7193   23.3608 C   0  0  0  0  0  0  0  0  0  0  0  0
    6.7583    0.5628   24.3020 C   0  0  0  0  0  0  0  0  0  0  0  0
    7.0731   -0.5949   25.2023 C   0  0  0  0  0  0  0  0  0  0  0  0
    6.5220   -1.3389   25.9891 O   0  0  0  0  0  0  0  0  0  0  0  0
    8.5340   -0.9060   25.0638 N   0  0  0  0  0  0  0  0  0  0  0  0
    9.1220    0.0595   24.0779 C   0  0  0  0  0  0  0  0  0  0  0  0
    8.0246    0.9672   23.6070 C   0  0  0  0  0  0  0  0  0  0  0  0
    5.5765    0.0470   25.0685 C   0  0  0  0  0  0  0  0  0  0  0  0
    5.7397   -1.1095   26.0096 C   0  0  0  0  0  0  0  0  0  0  0  0
    4.5580   -1.6252   26.7761 C   0  0  0  0  0  0  0  0  0  0  0  0
    4.7212   -2.7817   27.7173 Cl  0  0  0  0  0  0  0  0  0  0  0  0
    3.2131   -0.9844   26.6014 C   0  0  0  0  0  0  0  0  0  0  0  0
    3.0499    0.1721   25.6602 C   0  0  0  0  0  0  0  0  0  0  0  0
    4.2316    0.6878   24.8938 C   0  0  0  0  0  0  0  0  0  0  0  0
    4.0684    1.8444   23.9525 C   0  0  0  0  0  0  0  0  0  0  0  0
    2.7235    2.4852   23.7778 O   0  0  0  0  0  0  0  0  0  0  0  0
    9.2764   -1.9919   25.7846 C   0  0  0  0  0  0  0  0  0  0  0  0
    8.5208   -3.0270   26.5643 C   0  0  0  0  0  0  0  0  0  0  0  0
    9.2632   -4.1129   27.2851 N   0  0  0  0  0  0  0  0  0  0  0  0
   10.7611   -4.1637   27.2264 C   0  0  0  0  0  0  0  0  0  0  0  0
   11.5167   -3.1286   26.4468 C   0  0  0  0  0  0  0  0  0  0  0  0
   13.0148   -3.1795   26.3880 C   0  0  0  0  0  0  0  0  0  0  0  0
   13.7703   -2.1444   25.6084 C   0  0  0  0  0  0  0  0  0  0  0  0
   13.0279   -1.0585   24.8875 C   0  0  0  0  0  0  0  0  0  0  0  0
   11.5299   -1.0077   24.9463 C   0  0  0  0  0  0  0  0  0  0  0  0
   10.7743   -2.0427   25.7259 C   0  0  0  0  0  0  0  0  0  0  0  0
    5.0870    3.5166   22.2449 C   0  0  0  0  0  0  0  0  0  0  0  0
    3.4425    2.1990   18.8819 C   0  0  0  0  0  0  0  0  0  0  0  0
    4.3669    2.3135   20.0576 N   0  0  0  0  0  0  0  0  0  0  0  0
    4.1626    3.4021   21.0691 C   0  0  0  0  0  0  0  0  0  0  0  0
    3.0337    4.3762   20.9050 O   0  0  0  0  0  0  0  0  0  0  0  0
    5.1078    1.6742   20.1654 H   0  0  0  0  0  0  0  0  0  0  0  0
    8.1683    2.0835   22.6154 C   0  0  0  0  0  0  0  0  0  0  0  0
    9.3476    3.0071   22.6915 C   0  0  0  0  0  0  0  0  0  0  0  0
   10.7362    2.4665   22.5191 C   0  0  0  0  0  0  0  0  0  0  0  0
   11.9155    3.3903   22.5952 C   0  0  0  0  0  0  0  0  0  0  0  0
   11.7063    4.8547   22.8437 C   0  0  0  0  0  0  0  0  0  0  0  0
   10.3178    5.3954   23.0161 C   0  0  0  0  0  0  0  0  0  0  0  0
    9.1384    4.4716   22.9400 C   0  0  0  0  0  0  0  0  0  0  0  0
 29 30  1  0  0  0
 30 31  1  0  0  0
 31 32  2  0  0  0
 31 28  1  0  0  0
 28  1  1  0  0  0
  1  2  1  0  0  0
  3  2  1  0  0  0
  3  4  1  0  0  0
  4  5  2  0  0  0
  4  6  1  0  0  0
  6 18  1  0  0  0
 18 19  2  0  0  0
 19 20  1  0  0  0
 20 21  2  0  0  0
 21 22  1  0  0  0
 22 23  2  0  0  0
 23 24  1  0  0  0
 24 25  2  0  0  0
 25 26  1  0  0  0
 26 27  2  0  0  0
  6  7  1  0  0  0
  7  8  1  0  0  0
  8 34  1  0  0  0
 34 35  1  0  0  0
 35 36  2  0  0  0
 36 37  1  0  0  0
 37 38  2  0  0  0
 38 39  1  0  0  0
 39 40  2  0  0  0
  3  9  1  0  0  0
  9 10  2  0  0  0
 10 11  1  0  0  0
 11 12  1  0  0  0
 11 13  2  0  0  0
 13 14  1  0  0  0
 14 15  2  0  0  0
 15 16  1  0  0  0
 16 17  2  0  0  0
 16  1  1  0  0  0
  8  3  1  0  0  0
 40 35  1  0  0  0
 15  9  1  0  0  0
 27 18  1  0  0  0
 27 22  1  0  0  0
 30 33  1  0  0  0
M  END
> <minimizedAffinity>
-7.47087

> <CNNscore>
0.2215975821

> <CNNaffinity>
6.6612768173

> <CNN_VS>
1.4761228561

> <CNNaffinity_variance>
0.1142293438

$$$$



 40 45  0  0  0  0  0  0  0  0999 V2000
    6.8936   -3.6487   22.8839 N   0  0  0  0  0  0  0  0  0  0  0  0
    7.2051   -2.2839   22.3451 C   0  0  0  0  0  0  0  0  0  0  0  0
    8.3632   -1.5063   22.8963 C   0  0  0  0  0  0  0  0  0  0  0  0
    9.4828   -0.6151   23.3462 C   0  0  0  0  0  0  0  0  0  0  0  0
   10.4005   -0.6033   24.1424 O   0  0  0  0  0  0  0  0  0  0  0  0
    9.4214    0.6489   22.5409 N   0  0  0  0  0  0  0  0  0  0  0  0
    8.2638    0.5389   21.5932 C   0  0  0  0  0  0  0  0  0  0  0  0
    7.6099   -0.7931   21.8129 C   0  0  0  0  0  0  0  0  0  0  0  0
    9.2100   -2.0934   23.9865 C   0  0  0  0  0  0  0  0  0  0  0  0
   10.3681   -1.3158   24.5377 C   0  0  0  0  0  0  0  0  0  0  0  0
   11.2148   -1.9029   25.6278 C   0  0  0  0  0  0  0  0  0  0  0  0
   12.3730   -1.1253   26.1792 Cl  0  0  0  0  0  0  0  0  0  0  0  0
   10.9033   -3.2677   26.1667 C   0  0  0  0  0  0  0  0  0  0  0  0
    9.7451   -4.0453   25.6155 C   0  0  0  0  0  0  0  0  0  0  0  0
    8.8985   -3.4582   24.5254 C   0  0  0  0  0  0  0  0  0  0  0  0
    7.7402   -4.2358   23.9741 C   0  0  0  0  0  0  0  0  0  0  0  0
    7.4287   -5.6006   24.5129 O   0  0  0  0  0  0  0  0  0  0  0  0
   10.3537    1.8176   22.6620 C   0  0  0  0  0  0  0  0  0  0  0  0
   11.8319    1.6174   22.5041 C   0  0  0  0  0  0  0  0  0  0  0  0
   12.7643    2.7861   22.6252 N   0  0  0  0  0  0  0  0  0  0  0  0
   12.2185    4.1551   22.9041 C   0  0  0  0  0  0  0  0  0  0  0  0
   10.7403    4.3554   23.0620 C   0  0  0  0  0  0  0  0  0  0  0  0
   10.1946    5.7245   23.3410 C   0  0  0  0  0  0  0  0  0  0  0  0
    8.7164    5.9247   23.4989 C   0  0  0  0  0  0  0  0  0  0  0  0
    7.7840    4.7560   23.3778 C   0  0  0  0  0  0  0  0  0  0  0  0
    8.3298    3.3869   23.0988 C   0  0  0  0  0  0  0  0  0  0  0  0
    9.8080    3.1867   22.9409 C   0  0  0  0  0  0  0  0  0  0  0  0
    5.7354   -4.4263   22.3326 C   0  0  0  0  0  0  0  0  0  0  0  0
    4.7876   -7.4241   24.7544 C   0  0  0  0  0  0  0  0  0  0  0  0
    5.5843   -6.5263   23.8548 N   0  0  0  0  0  0  0  0  0  0  0  0
    4.9386   -5.3241   23.2322 C   0  0  0  0  0  0  0  0  0  0  0  0
    3.4962   -5.0196   23.5091 O   0  0  0  0  0  0  0  0  0  0  0  0
    6.5310   -6.7262   23.6731 H   0  0  0  0  0  0  0  0  0  0  0  0
    6.4128   -1.3194   21.0781 C   0  0  0  0  0  0  0  0  0  0  0  0
    5.7561   -0.4847   20.0190 C   0  0  0  0  0  0  0  0  0  0  0  0
    6.3160   -0.4618   18.6276 C   0  0  0  0  0  0  0  0  0  0  0  0
    5.6592    0.3730   17.5685 C   0  0  0  0  0  0  0  0  0  0  0  0
    4.4425    1.1849   17.9008 C   0  0  0  0  0  0  0  0  0  0  0  0
    3.8825    1.1621   19.2921 C   0  0  0  0  0  0  0  0  0  0  0  0
    4.5393    0.3273   20.3513 C   0  0  0  0  0  0  0  0  0  0  0  0
 29 30  1  0  0  0
 30 31  1  0  0  0
 31 32  2  0  0  0
 31 28  1  0  0  0
 28  1  1  0  0  0
  1  2  1  0  0  0
  3  2  1  0  0  0
  3  4  1  0  0  0
  4  5  2  0  0  0
  4  6  1  0  0  0
  6 18  1  0  0  0
 18 19  2  0  0  0
 19 20  1  0  0  0
 20 21  2  0  0  0
 21 22  1  0  0  0
 22 23  2  0  0  0
 23 24  1  0  0  0
 24 25  2  0  0  0
 25 26  1  0  0  0
 26 27  2  0  0  0
  6  7  1  0  0  0
  7  8  1  0  0  0
  8 34  1  0  0  0
 34 35  1  0  0  0
 35 36  2  0  0  0
 36 37  1  0  0  0
 37 38  2  0  0  0
 38 39  1  0  0  0
 39 40  2  0  0  0
  3  9  1  0  0  0
  9 10  2  0  0  0
 10 11  1  0  0  0
 11 12  1  0  0  0
 11 13  2  0  0  0
 13 14  1  0  0  0
 14 15  2  0  0  0
 15 16  1  0  0  0
 16 17  2  0  0  0
 16  1  1  0  0  0
  8  3  1  0  0  0
 40 35  1  0  0  0
 15  9  1  0  0  0
 27 18  1  0  0  0
 27 22  1  0  0  0
 30 33  1  0  0  0
M  END
> <minimizedAffinity>
-8.18332

> <CNNscore>
0.2191939205

> <CNNaffinity>
6.7556037903

> <CNN_VS>
1.4807872772

> <CNNaffinity_variance>
0.2080293000

$$$$



 40 45  0  0  0  0  0  0  0  0999 V2000
    9.7411    0.9649   23.7547 N   0  0  0  0  0  0  0  0  0  0  0  0
    8.4074    0.4702   24.2305 C   0  0  0  0  0  0  0  0  0  0  0  0
    8.3223   -0.7759   25.0610 C   0  0  0  0  0  0  0  0  0  0  0  0
    8.0819   -1.9997   25.8944 C   0  0  0  0  0  0  0  0  0  0  0  0
    8.7001   -2.9038   26.4205 O   0  0  0  0  0  0  0  0  0  0  0  0
    6.6058   -2.1138   26.1354 N   0  0  0  0  0  0  0  0  0  0  0  0
    5.9339   -0.9605   25.4510 C   0  0  0  0  0  0  0  0  0  0  0  0
    6.9948   -0.1336   24.7870 C   0  0  0  0  0  0  0  0  0  0  0  0
    9.5711   -1.5275   25.4159 C   0  0  0  0  0  0  0  0  0  0  0  0
    9.4861   -2.7736   26.2464 C   0  0  0  0  0  0  0  0  0  0  0  0
   10.7348   -3.5251   26.6012 C   0  0  0  0  0  0  0  0  0  0  0  0
   10.6498   -4.7713   27.4318 Cl  0  0  0  0  0  0  0  0  0  0  0  0
   12.0686   -3.0304   26.1254 C   0  0  0  0  0  0  0  0  0  0  0  0
   12.1536   -1.7843   25.2949 C   0  0  0  0  0  0  0  0  0  0  0  0
   10.9049   -1.0328   24.9401 C   0  0  0  0  0  0  0  0  0  0  0  0
   10.9899    0.2134   24.1095 C   0  0  0  0  0  0  0  0  0  0  0  0
   12.3236    0.7081   23.6337 O   0  0  0  0  0  0  0  0  0  0  0  0
    5.9217   -3.1919   26.9226 C   0  0  0  0  0  0  0  0  0  0  0  0
    5.8254   -3.0842   28.4156 C   0  0  0  0  0  0  0  0  0  0  0  0
    5.1413   -4.1623   29.2028 N   0  0  0  0  0  0  0  0  0  0  0  0
    4.5535   -5.3482   28.4969 C   0  0  0  0  0  0  0  0  0  0  0  0
    4.6498   -5.4559   27.0039 C   0  0  0  0  0  0  0  0  0  0  0  0
    4.0619   -6.6418   26.2980 C   0  0  0  0  0  0  0  0  0  0  0  0
    4.1583   -6.7494   24.8050 C   0  0  0  0  0  0  0  0  0  0  0  0
    4.8424   -5.6713   24.0178 C   0  0  0  0  0  0  0  0  0  0  0  0
    5.4302   -4.4855   24.7236 C   0  0  0  0  0  0  0  0  0  0  0  0
    5.3339   -4.3778   26.2167 C   0  0  0  0  0  0  0  0  0  0  0  0
    9.8261    2.2111   22.9241 C   0  0  0  0  0  0  0  0  0  0  0  0
    6.7215    4.4552   21.8873 C   0  0  0  0  0  0  0  0  0  0  0  0
    7.9304    3.9624   22.6260 N   0  0  0  0  0  0  0  0  0  0  0  0
    8.6173    2.7039   22.1853 C   0  0  0  0  0  0  0  0  0  0  0  0
    8.0953    1.9381   21.0058 O   0  0  0  0  0  0  0  0  0  0  0  0
    8.2730    4.4650   23.4001 H   0  0  0  0  0  0  0  0  0  0  0  0
    6.7679    1.1161   23.9891 C   0  0  0  0  0  0  0  0  0  0  0  0
    5.3898    1.4572   23.5052 C   0  0  0  0  0  0  0  0  0  0  0  0
    4.9168    0.9549   22.1733 C   0  0  0  0  0  0  0  0  0  0  0  0
    3.5386    1.2961   21.6894 C   0  0  0  0  0  0  0  0  0  0  0  0
    2.6334    2.1395   22.5374 C   0  0  0  0  0  0  0  0  0  0  0  0
    3.1062    2.6418   23.8693 C   0  0  0  0  0  0  0  0  0  0  0  0
    4.4845    2.3007   24.3532 C   0  0  0  0  0  0  0  0  0  0  0  0
 29 30  1  0  0  0
 30 31  1  0  0  0
 31 32  2  0  0  0
 31 28  1  0  0  0
 28  1  1  0  0  0
  1  2  1  0  0  0
  3  2  1  0  0  0
  3  4  1  0  0  0
  4  5  2  0  0  0
  4  6  1  0  0  0
  6 18  1  0  0  0
 18 19  2  0  0  0
 19 20  1  0  0  0
 20 21  2  0  0  0
 21 22  1  0  0  0
 22 23  2  0  0  0
 23 24  1  0  0  0
 24 25  2  0  0  0
 25 26  1  0  0  0
 26 27  2  0  0  0
  6  7  1  0  0  0
  7  8  1  0  0  0
  8 34  1  0  0  0
 34 35  1  0  0  0
 35 36  2  0  0  0
 36 37  1  0  0  0
 37 38  2  0  0  0
 38 39  1  0  0  0
 39 40  2  0  0  0
  3  9  1  0  0  0
  9 10  2  0  0  0
 10 11  1  0  0  0
 11 12  1  0  0  0
 11 13  2  0  0  0
 13 14  1  0  0  0
 14 15  2  0  0  0
 15 16  1  0  0  0
 16 17  2  0  0  0
 16  1  1  0  0  0
  8  3  1  0  0  0
 40 35  1  0  0  0
 15  9  1  0  0  0
 27 18  1  0  0  0
 27 22  1  0  0  0
 30 33  1  0  0  0
M  END
> <minimizedAffinity>
-7.54846

> <CNNscore>
0.2174022943

> <CNNaffinity>
6.4364500046

> <CNN_VS>
1.3992990255

> <CNNaffinity_variance>
0.4069402218

$$$$



 40 45  0  0  0  0  0  0  0  0999 V2000
   10.1521    0.8039   23.0460 N   0  0  0  0  0  0  0  0  0  0  0  0
    8.7919    0.1933   23.2106 C   0  0  0  0  0  0  0  0  0  0  0  0
    8.6056   -0.9914   24.1115 C   0  0  0  0  0  0  0  0  0  0  0  0
    8.2674   -2.1719   24.9729 C   0  0  0  0  0  0  0  0  0  0  0  0
    8.8049   -2.9580   25.7275 O   0  0  0  0  0  0  0  0  0  0  0  0
    6.7975   -2.4388   24.8373 N   0  0  0  0  0  0  0  0  0  0  0  0
    6.2273   -1.4233   23.8920 C   0  0  0  0  0  0  0  0  0  0  0  0
    7.3448   -0.5288   23.4434 C   0  0  0  0  0  0  0  0  0  0  0  0
    9.7795   -1.5656   24.8479 C   0  0  0  0  0  0  0  0  0  0  0  0
    9.5932   -2.7504   25.7488 C   0  0  0  0  0  0  0  0  0  0  0  0
   10.7671   -3.3245   26.4852 C   0  0  0  0  0  0  0  0  0  0  0  0
   10.5809   -4.5093   27.3861 Cl  0  0  0  0  0  0  0  0  0  0  0  0
   12.1273   -2.7139   26.3206 C   0  0  0  0  0  0  0  0  0  0  0  0
   12.3136   -1.5292   25.4197 C   0  0  0  0  0  0  0  0  0  0  0  0
   11.1397   -0.9551   24.6833 C   0  0  0  0  0  0  0  0  0  0  0  0
   11.3260    0.2297   23.7824 C   0  0  0  0  0  0  0  0  0  0  0  0
   12.6862    0.8403   23.6178 O   0  0  0  0  0  0  0  0  0  0  0  0
    6.0323   -3.5297   25.5261 C   0  0  0  0  0  0  0  0  0  0  0  0
    5.6511   -4.7694   24.7725 C   0  0  0  0  0  0  0  0  0  0  0  0
    4.8859   -5.8602   25.4613 N   0  0  0  0  0  0  0  0  0  0  0  0
    4.5019   -5.7114   26.9036 C   0  0  0  0  0  0  0  0  0  0  0  0
    4.8831   -4.4717   27.6572 C   0  0  0  0  0  0  0  0  0  0  0  0
    4.4990   -4.3229   29.0996 C   0  0  0  0  0  0  0  0  0  0  0  0
    4.8802   -3.0832   29.8531 C   0  0  0  0  0  0  0  0  0  0  0  0
    5.6455   -1.9923   29.1643 C   0  0  0  0  0  0  0  0  0  0  0  0
    6.0295   -2.1411   27.7220 C   0  0  0  0  0  0  0  0  0  0  0  0
    5.6483   -3.3808   26.9684 C   0  0  0  0  0  0  0  0  0  0  0  0
   10.3383    1.9887   22.1450 C   0  0  0  0  0  0  0  0  0  0  0  0
   10.7260    5.8630   22.9128 C   0  0  0  0  0  0  0  0  0  0  0  0
   11.0201    4.4820   22.4063 N   0  0  0  0  0  0  0  0  0  0  0  0
   10.0442    3.3696   22.6515 C   0  0  0  0  0  0  0  0  0  0  0  0
    8.7743    3.6381   23.4033 O   0  0  0  0  0  0  0  0  0  0  0  0
   11.8536    4.3058   21.9129 H   0  0  0  0  0  0  0  0  0  0  0  0
    7.2228    0.6257   22.4935 C   0  0  0  0  0  0  0  0  0  0  0  0
    5.8801    1.0057   21.9434 C   0  0  0  0  0  0  0  0  0  0  0  0
    5.4891    0.5805   20.5591 C   0  0  0  0  0  0  0  0  0  0  0  0
    4.1463    0.9605   20.0090 C   0  0  0  0  0  0  0  0  0  0  0  0
    3.1946    1.7657   20.8431 C   0  0  0  0  0  0  0  0  0  0  0  0
    3.5856    2.1910   22.2274 C   0  0  0  0  0  0  0  0  0  0  0  0
    4.9284    1.8110   22.7776 C   0  0  0  0  0  0  0  0  0  0  0  0
 29 30  1  0  0  0
 30 31  1  0  0  0
 31 32  2  0  0  0
 31 28  1  0  0  0
 28  1  1  0  0  0
  1  2  1  0  0  0
  3  2  1  0  0  0
  3  4  1  0  0  0
  4  5  2  0  0  0
  4  6  1  0  0  0
  6 18  1  0  0  0
 18 19  2  0  0  0
 19 20  1  0  0  0
 20 21  2  0  0  0
 21 22  1  0  0  0
 22 23  2  0  0  0
 23 24  1  0  0  0
 24 25  2  0  0  0
 25 26  1  0  0  0
 26 27  2  0  0  0
  6  7  1  0  0  0
  7  8  1  0  0  0
  8 34  1  0  0  0
 34 35  1  0  0  0
 35 36  2  0  0  0
 36 37  1  0  0  0
 37 38  2  0  0  0
 38 39  1  0  0  0
 39 40  2  0  0  0
  3  9  1  0  0  0
  9 10  2  0  0  0
 10 11  1  0  0  0
 11 12  1  0  0  0
 11 13  2  0  0  0
 13 14  1  0  0  0
 14 15  2  0  0  0
 15 16  1  0  0  0
 16 17  2  0  0  0
 16  1  1  0  0  0
  8  3  1  0  0  0
 40 35  1  0  0  0
 15  9  1  0  0  0
 27 18  1  0  0  0
 27 22  1  0  0  0
 30 33  1  0  0  0
M  END
> <minimizedAffinity>
-8.04046

> <CNNscore>
0.1865561903

> <CNNaffinity>
6.7364335060

> <CNN_VS>
1.2567234039

> <CNNaffinity_variance>
0.1894731075

$$$$



 40 45  0  0  0  0  0  0  0  0999 V2000
    8.8112   -2.9630   25.6126 N   0  0  0  0  0  0  0  0  0  0  0  0
    8.4387   -2.2050   24.3730 C   0  0  0  0  0  0  0  0  0  0  0  0
    7.0924   -1.5516   24.2696 C   0  0  0  0  0  0  0  0  0  0  0  0
    5.7899   -0.8497   24.0234 C   0  0  0  0  0  0  0  0  0  0  0  0
    4.7286   -0.6365   24.5753 O   0  0  0  0  0  0  0  0  0  0  0  0
    5.8494   -0.2267   22.6602 N   0  0  0  0  0  0  0  0  0  0  0  0
    7.1888   -0.5436   22.0639 C   0  0  0  0  0  0  0  0  0  0  0  0
    7.9570   -1.3624   23.0585 C   0  0  0  0  0  0  0  0  0  0  0  0
    6.1187   -1.6562   25.4059 C   0  0  0  0  0  0  0  0  0  0  0  0
    4.7725   -1.0028   25.3025 C   0  0  0  0  0  0  0  0  0  0  0  0
    3.7989   -1.1074   26.4387 C   0  0  0  0  0  0  0  0  0  0  0  0
    2.4526   -0.4540   26.3354 Cl  0  0  0  0  0  0  0  0  0  0  0  0
    4.1715   -1.8655   27.6783 C   0  0  0  0  0  0  0  0  0  0  0  0
    5.5177   -2.5189   27.7817 C   0  0  0  0  0  0  0  0  0  0  0  0
    6.4913   -2.4142   26.6455 C   0  0  0  0  0  0  0  0  0  0  0  0
    7.8376   -3.0677   26.7488 C   0  0  0  0  0  0  0  0  0  0  0  0
    8.2102   -3.8257   27.9884 O   0  0  0  0  0  0  0  0  0  0  0  0
    4.7607    0.5728   22.0079 C   0  0  0  0  0  0  0  0  0  0  0  0
    3.6743    1.1823   22.8435 C   0  0  0  0  0  0  0  0  0  0  0  0
    2.5855    1.9818   22.1912 N   0  0  0  0  0  0  0  0  0  0  0  0
    2.5832    2.1717   20.7033 C   0  0  0  0  0  0  0  0  0  0  0  0
    3.6697    1.5622   19.8677 C   0  0  0  0  0  0  0  0  0  0  0  0
    3.6673    1.7522   18.3797 C   0  0  0  0  0  0  0  0  0  0  0  0
    4.7538    1.1427   17.5442 C   0  0  0  0  0  0  0  0  0  0  0  0
    5.8425    0.3432   18.1965 C   0  0  0  0  0  0  0  0  0  0  0  0
    5.8448    0.1532   19.6844 C   0  0  0  0  0  0  0  0  0  0  0  0
    4.7584    0.7627   20.5200 C   0  0  0  0  0  0  0  0  0  0  0  0
   10.1575   -3.6165   25.7159 C   0  0  0  0  0  0  0  0  0  0  0  0
   13.9284   -2.6134   26.4400 C   0  0  0  0  0  0  0  0  0  0  0  0
   12.7093   -3.4457   26.1732 N   0  0  0  0  0  0  0  0  0  0  0  0
   11.3766   -2.7842   25.9826 C   0  0  0  0  0  0  0  0  0  0  0  0
   11.2630   -1.2904   26.0588 O   0  0  0  0  0  0  0  0  0  0  0  0
   12.7839   -4.4261   26.1233 H   0  0  0  0  0  0  0  0  0  0  0  0
    9.3460   -1.8980   22.8744 C   0  0  0  0  0  0  0  0  0  0  0  0
   10.5106   -0.9552   22.8074 C   0  0  0  0  0  0  0  0  0  0  0  0
   11.8564   -1.4551   22.3727 C   0  0  0  0  0  0  0  0  0  0  0  0
   13.0211   -0.5122   22.3057 C   0  0  0  0  0  0  0  0  0  0  0  0
   12.8399    0.9307   22.6734 C   0  0  0  0  0  0  0  0  0  0  0  0
   11.4943    1.4307   23.1081 C   0  0  0  0  0  0  0  0  0  0  0  0
   10.3295    0.4878   23.1751 C   0  0  0  0  0  0  0  0  0  0  0  0
 29 30  1  0  0  0
 30 31  1  0  0  0
 31 32  2  0  0  0
 31 28  1  0  0  0
 28  1  1  0  0  0
  1  2  1  0  0  0
  3  2  1  0  0  0
  3  4  1  0  0  0
  4  5  2  0  0  0
  4  6  1  0  0  0
  6 18  1  0  0  0
 18 19  2  0  0  0
 19 20  1  0  0  0
 20 21  2  0  0  0
 21 22  1  0  0  0
 22 23  2  0  0  0
 23 24  1  0  0  0
 24 25  2  0  0  0
 25 26  1  0  0  0
 26 27  2  0  0  0
  6  7  1  0  0  0
  7  8  1  0  0  0
  8 34  1  0  0  0
 34 35  1  0  0  0
 35 36  2  0  0  0
 36 37  1  0  0  0
 37 38  2  0  0  0
 38 39  1  0  0  0
 39 40  2  0  0  0
  3  9  1  0  0  0
  9 10  2  0  0  0
 10 11  1  0  0  0
 11 12  1  0  0  0
 11 13  2  0  0  0
 13 14  1  0  0  0
 14 15  2  0  0  0
 15 16  1  0  0  0
 16 17  2  0  0  0
 16  1  1  0  0  0
  8  3  1  0  0  0
 40 35  1  0  0  0
 15  9  1  0  0  0
 27 18  1  0  0  0
 27 22  1  0  0  0
 30 33  1  0  0  0
M  END
> <minimizedAffinity>
-8.63578

> <CNNscore>
0.1841093153

> <CNNaffinity>
6.5346822739

> <CNN_VS>
1.2030959129

> <CNNaffinity_variance>
0.1619781107

$$$$
