


 38 43  0  0  0  0  0  0  0  0999 V2000
   10.8806   -2.6450   25.3416 C   0  0  0  0  0  0  0  0  0  0  0  0
    9.4095   -2.3518   25.3397 C   0  0  0  0  0  0  0  0  0  0  0  0
    8.6150   -3.4596   25.9655 C   0  0  0  0  0  0  0  0  0  0  0  0
    7.1658   -3.0755   25.9165 N   0  0  0  0  0  0  0  0  0  0  0  0
    7.0648   -1.7303   25.2604 C   0  0  0  0  0  0  0  0  0  0  0  0
    5.7992   -0.9666   25.0056 O   0  0  0  0  0  0  0  0  0  0  0  0
    8.4515   -1.2830   24.9040 C   0  0  0  0  0  0  0  0  0  0  0  0
    7.3788   -0.3056   24.5246 C   0  0  0  0  0  0  0  0  0  0  0  0
    7.7433    0.9839   23.8507 N   0  0  0  0  0  0  0  0  0  0  0  0
    9.1806    1.2961   23.5562 C   0  0  0  0  0  0  0  0  0  0  0  0
    9.5452    2.5857   22.8824 O   0  0  0  0  0  0  0  0  0  0  0  0
   10.2534    0.3187   23.9356 C   0  0  0  0  0  0  0  0  0  0  0  0
   11.6907    0.6308   23.6411 C   0  0  0  0  0  0  0  0  0  0  0  0
   12.7633   -0.3466   24.0205 C   0  0  0  0  0  0  0  0  0  0  0  0
   12.3988   -1.6361   24.6943 C   0  0  0  0  0  0  0  0  0  0  0  0
   13.4716   -2.6136   25.0737 Cl  0  0  0  0  0  0  0  0  0  0  0  0
   10.9615   -1.9483   24.9888 C   0  0  0  0  0  0  0  0  0  0  0  0
    9.8888   -0.9709   24.6095 C   0  0  0  0  0  0  0  0  0  0  0  0
    6.0191   -3.8930   26.4328 C   0  0  0  0  0  0  0  0  0  0  0  0
    5.4062   -4.9550   25.5689 C   0  0  0  0  0  0  0  0  0  0  0  0
    4.2595   -5.7725   26.0853 N   0  0  0  0  0  0  0  0  0  0  0  0
    3.7256   -5.5279   27.4656 C   0  0  0  0  0  0  0  0  0  0  0  0
    4.3385   -4.4658   28.3295 C   0  0  0  0  0  0  0  0  0  0  0  0
    3.8046   -4.2212   29.7098 C   0  0  0  0  0  0  0  0  0  0  0  0
    4.4176   -3.1591   30.5736 C   0  0  0  0  0  0  0  0  0  0  0  0
    5.5643   -2.3417   30.0572 C   0  0  0  0  0  0  0  0  0  0  0  0
    6.0982   -2.5863   28.6770 C   0  0  0  0  0  0  0  0  0  0  0  0
    5.4853   -3.6483   27.8131 C   0  0  0  0  0  0  0  0  0  0  0  0
    6.6706    1.9614   23.4714 C   0  0  0  0  0  0  0  0  0  0  0  0
    5.4047    1.4744   22.8307 C   0  0  0  0  0  0  0  0  0  0  0  0
    5.4283    0.9534   21.4243 N   0  0  0  0  0  0  0  0  0  0  0  0
    6.0996   -0.3530   21.1196 C   0  0  0  0  0  0  0  0  0  0  0  0
    6.1232   -0.8740   19.7132 C   0  0  0  0  0  0  0  0  0  0  0  0
    5.4755   -0.0887   18.6115 S   0  0  0  0  0  0  0  0  0  0  0  0
    5.0040    0.2884   17.2384 O   0  0  0  0  0  0  0  0  0  0  0  0
    5.9830   -1.2641   17.8299 O   0  0  0  0  0  0  0  0  0  0  0  0
    4.8042    1.2176   18.9162 C   0  0  0  0  0  0  0  0  0  0  0  0
    4.7806    1.7387   20.3226 C   0  0  0  0  0  0  0  0  0  0  0  0
  2  1  1  0  0  0
  2  3  1  0  0  0
  3  4  1  0  0  0
  4 19  1  0  0  0
 19 20  2  0  0  0
 20 21  1  0  0  0
 21 22  2  0  0  0
 22 23  1  0  0  0
 23 24  2  0  0  0
 24 25  1  0  0  0
 25 26  2  0  0  0
 26 27  1  0  0  0
 27 28  2  0  0  0
  4  5  1  0  0  0
  5  6  2  0  0  0
  5  7  1  0  0  0
  7  8  1  0  0  0
  8  9  1  0  0  0
  9 29  1  0  0  0
 29 30  1  0  0  0
 30 31  1  0  0  0
 31 32  1  0  0  0
 32 33  1  0  0  0
 33 34  1  0  0  0
 34 35  2  0  0  0
 34 36  2  0  0  0
 34 37  1  0  0  0
 37 38  1  0  0  0
  9 10  1  0  0  0
 10 11  2  0  0  0
 10 12  1  0  0  0
 12 13  2  0  0  0
 13 14  1  0  0  0
 14 15  2  0  0  0
 15 16  1  0  0  0
 15 17  1  0  0  0
 17 18  2  0  0  0
  7  2  1  0  0  0
 38 31  1  0  0  0
 18 12  1  0  0  0
 28 19  1  0  0  0
 18  7  1  0  0  0
 28 23  1  0  0  0
M  END
> <minimizedAffinity>
-9.09822

> <CNNscore>
0.4768899679

> <CNNaffinity>
6.8052458763

> <CNN_VS>
3.2453534603

> <CNNaffinity_variance>
0.0342838056

$$$$



 38 43  0  0  0  0  0  0  0  0999 V2000
   10.6786   -1.2502   22.5310 C   0  0  0  0  0  0  0  0  0  0  0  0
    9.1818   -1.1748   22.4669 C   0  0  0  0  0  0  0  0  0  0  0  0
    8.7041   -0.5741   21.1781 C   0  0  0  0  0  0  0  0  0  0  0  0
    7.2048   -0.5421   21.2093 N   0  0  0  0  0  0  0  0  0  0  0  0
    6.7559   -1.1229   22.5174 C   0  0  0  0  0  0  0  0  0  0  0  0
    5.3346   -1.2844   22.9689 O   0  0  0  0  0  0  0  0  0  0  0  0
    7.9777   -1.5140   23.2946 C   0  0  0  0  0  0  0  0  0  0  0  0
    6.6869   -1.7968   24.0043 C   0  0  0  0  0  0  0  0  0  0  0  0
    6.7020   -2.4180   25.3695 N   0  0  0  0  0  0  0  0  0  0  0  0
    8.0079   -2.7564   26.0251 C   0  0  0  0  0  0  0  0  0  0  0  0
    8.0231   -3.3776   27.3904 O   0  0  0  0  0  0  0  0  0  0  0  0
    9.2989   -2.4736   25.3155 C   0  0  0  0  0  0  0  0  0  0  0  0
   10.6049   -2.8119   25.9711 C   0  0  0  0  0  0  0  0  0  0  0  0
   11.8958   -2.5291   25.2615 C   0  0  0  0  0  0  0  0  0  0  0  0
   11.8806   -1.9080   23.8962 C   0  0  0  0  0  0  0  0  0  0  0  0
   13.1716   -1.6252   23.1866 Cl  0  0  0  0  0  0  0  0  0  0  0  0
   10.5747   -1.5696   23.2406 C   0  0  0  0  0  0  0  0  0  0  0  0
    9.2838   -1.8524   23.9502 C   0  0  0  0  0  0  0  0  0  0  0  0
    6.3113   -0.0207   20.1231 C   0  0  0  0  0  0  0  0  0  0  0  0
    6.3104   -0.6756   18.7738 C   0  0  0  0  0  0  0  0  0  0  0  0
    5.4169   -0.1542   17.6876 N   0  0  0  0  0  0  0  0  0  0  0  0
    4.5242    1.0222   17.9509 C   0  0  0  0  0  0  0  0  0  0  0  0
    4.5251    1.6771   19.3004 C   0  0  0  0  0  0  0  0  0  0  0  0
    3.6324    2.8535   19.5637 C   0  0  0  0  0  0  0  0  0  0  0  0
    3.6333    3.5084   20.9132 C   0  0  0  0  0  0  0  0  0  0  0  0
    4.5268    2.9869   21.9993 C   0  0  0  0  0  0  0  0  0  0  0  0
    5.4195    1.8106   21.7360 C   0  0  0  0  0  0  0  0  0  0  0  0
    5.4186    1.1557   20.3866 C   0  0  0  0  0  0  0  0  0  0  0  0
    5.4110   -2.7008   26.0792 C   0  0  0  0  0  0  0  0  0  0  0  0
    4.5441   -1.5666   26.5395 C   0  0  0  0  0  0  0  0  0  0  0  0
    5.0872   -0.5488   27.4981 N   0  0  0  0  0  0  0  0  0  0  0  0
    5.8780    0.6180   26.9849 C   0  0  0  0  0  0  0  0  0  0  0  0
    6.4211    1.6358   27.9436 C   0  0  0  0  0  0  0  0  0  0  0  0
    6.1734    1.4869   29.4155 S   0  0  0  0  0  0  0  0  0  0  0  0
    6.2040    1.7784   30.8865 O   0  0  0  0  0  0  0  0  0  0  0  0
    6.9748    2.7549   29.4131 O   0  0  0  0  0  0  0  0  0  0  0  0
    5.3826    0.3202   29.9287 C   0  0  0  0  0  0  0  0  0  0  0  0
    4.8395   -0.6977   28.9700 C   0  0  0  0  0  0  0  0  0  0  0  0
  2  1  1  0  0  0
  2  3  1  0  0  0
  3  4  1  0  0  0
  4 19  1  0  0  0
 19 20  2  0  0  0
 20 21  1  0  0  0
 21 22  2  0  0  0
 22 23  1  0  0  0
 23 24  2  0  0  0
 24 25  1  0  0  0
 25 26  2  0  0  0
 26 27  1  0  0  0
 27 28  2  0  0  0
  4  5  1  0  0  0
  5  6  2  0  0  0
  5  7  1  0  0  0
  7  8  1  0  0  0
  8  9  1  0  0  0
  9 29  1  0  0  0
 29 30  1  0  0  0
 30 31  1  0  0  0
 31 32  1  0  0  0
 32 33  1  0  0  0
 33 34  1  0  0  0
 34 35  2  0  0  0
 34 36  2  0  0  0
 34 37  1  0  0  0
 37 38  1  0  0  0
  9 10  1  0  0  0
 10 11  2  0  0  0
 10 12  1  0  0  0
 12 13  2  0  0  0
 13 14  1  0  0  0
 14 15  2  0  0  0
 15 16  1  0  0  0
 15 17  1  0  0  0
 17 18  2  0  0  0
  7  2  1  0  0  0
 38 31  1  0  0  0
 18 12  1  0  0  0
 28 19  1  0  0  0
 18  7  1  0  0  0
 28 23  1  0  0  0
M  END
> <minimizedAffinity>
-8.62962

> <CNNscore>
0.4258700013

> <CNNaffinity>
6.6314454079

> <CNN_VS>
2.8241336346

> <CNNaffinity_variance>
0.0856739730

$$$$



 38 43  0  0  0  0  0  0  0  0999 V2000
   11.0021   -2.4852   24.8215 C   0  0  0  0  0  0  0  0  0  0  0  0
    9.6006   -2.7339   24.3483 C   0  0  0  0  0  0  0  0  0  0  0  0
    9.0518   -4.0278   24.8726 C   0  0  0  0  0  0  0  0  0  0  0  0
    7.6555   -4.1856   24.3478 N   0  0  0  0  0  0  0  0  0  0  0  0
    7.3414   -2.9893   23.4991 C   0  0  0  0  0  0  0  0  0  0  0  0
    6.0515   -2.7349   22.7770 O   0  0  0  0  0  0  0  0  0  0  0  0
    8.5434   -2.0921   23.4995 C   0  0  0  0  0  0  0  0  0  0  0  0
    7.3959   -1.5742   22.6841 C   0  0  0  0  0  0  0  0  0  0  0  0
    7.5192   -0.2651   21.9623 N   0  0  0  0  0  0  0  0  0  0  0  0
    8.7901    0.5262   22.0559 C   0  0  0  0  0  0  0  0  0  0  0  0
    8.9134    1.8353   21.3341 O   0  0  0  0  0  0  0  0  0  0  0  0
    9.9377    0.0083   22.8713 C   0  0  0  0  0  0  0  0  0  0  0  0
   11.2085    0.7995   22.9649 C   0  0  0  0  0  0  0  0  0  0  0  0
   12.3561    0.2817   23.7803 C   0  0  0  0  0  0  0  0  0  0  0  0
   12.2328   -1.0275   24.5021 C   0  0  0  0  0  0  0  0  0  0  0  0
   13.3804   -1.5453   25.3175 Cl  0  0  0  0  0  0  0  0  0  0  0  0
   10.9619   -1.8187   24.4085 C   0  0  0  0  0  0  0  0  0  0  0  0
    9.8144   -1.3008   23.5931 C   0  0  0  0  0  0  0  0  0  0  0  0
    6.7350   -5.3375   24.6232 C   0  0  0  0  0  0  0  0  0  0  0  0
    7.0566   -6.6999   24.0845 C   0  0  0  0  0  0  0  0  0  0  0  0
    6.1361   -7.8517   24.3600 N   0  0  0  0  0  0  0  0  0  0  0  0
    4.8940   -7.6411   25.1741 C   0  0  0  0  0  0  0  0  0  0  0  0
    4.5724   -6.2786   25.7128 C   0  0  0  0  0  0  0  0  0  0  0  0
    3.3303   -6.0680   26.5270 C   0  0  0  0  0  0  0  0  0  0  0  0
    3.0088   -4.7054   27.0657 C   0  0  0  0  0  0  0  0  0  0  0  0
    3.9293   -3.5537   26.7902 C   0  0  0  0  0  0  0  0  0  0  0  0
    5.1714   -3.7643   25.9761 C   0  0  0  0  0  0  0  0  0  0  0  0
    5.4929   -5.1267   25.4374 C   0  0  0  0  0  0  0  0  0  0  0  0
    6.3716    0.2528   21.1469 C   0  0  0  0  0  0  0  0  0  0  0  0
    6.2070    1.7287   20.9362 C   0  0  0  0  0  0  0  0  0  0  0  0
    4.8681    2.2871   20.5546 N   0  0  0  0  0  0  0  0  0  0  0  0
    4.0826    1.6582   19.4421 C   0  0  0  0  0  0  0  0  0  0  0  0
    2.7438    2.2165   19.0605 C   0  0  0  0  0  0  0  0  0  0  0  0
    2.1904    3.4038   19.7913 S   0  0  0  0  0  0  0  0  0  0  0  0
    1.2509    4.5055   20.1830 O   0  0  0  0  0  0  0  0  0  0  0  0
    1.0787    3.1575   18.8148 O   0  0  0  0  0  0  0  0  0  0  0  0
    2.9758    4.0327   20.9037 C   0  0  0  0  0  0  0  0  0  0  0  0
    4.3147    3.4744   21.2854 C   0  0  0  0  0  0  0  0  0  0  0  0
  2  1  1  0  0  0
  2  3  1  0  0  0
  3  4  1  0  0  0
  4 19  1  0  0  0
 19 20  2  0  0  0
 20 21  1  0  0  0
 21 22  2  0  0  0
 22 23  1  0  0  0
 23 24  2  0  0  0
 24 25  1  0  0  0
 25 26  2  0  0  0
 26 27  1  0  0  0
 27 28  2  0  0  0
  4  5  1  0  0  0
  5  6  2  0  0  0
  5  7  1  0  0  0
  7  8  1  0  0  0
  8  9  1  0  0  0
  9 29  1  0  0  0
 29 30  1  0  0  0
 30 31  1  0  0  0
 31 32  1  0  0  0
 32 33  1  0  0  0
 33 34  1  0  0  0
 34 35  2  0  0  0
 34 36  2  0  0  0
 34 37  1  0  0  0
 37 38  1  0  0  0
  9 10  1  0  0  0
 10 11  2  0  0  0
 10 12  1  0  0  0
 12 13  2  0  0  0
 13 14  1  0  0  0
 14 15  2  0  0  0
 15 16  1  0  0  0
 15 17  1  0  0  0
 17 18  2  0  0  0
  7  2  1  0  0  0
 38 31  1  0  0  0
 18 12  1  0  0  0
 28 19  1  0  0  0
 18  7  1  0  0  0
 28 23  1  0  0  0
M  END
> <minimizedAffinity>
-9.80181

> <CNNscore>
0.3679643273

> <CNNaffinity>
6.6031441689

> <CNN_VS>
2.4297215939

> <CNNaffinity_variance>
0.0591085926

$$$$



 38 43  0  0  0  0  0  0  0  0999 V2000
   10.8750   -1.2659   22.6120 C   0  0  0  0  0  0  0  0  0  0  0  0
    9.3763   -1.2256   22.5607 C   0  0  0  0  0  0  0  0  0  0  0  0
    8.8740   -0.6162   21.2854 C   0  0  0  0  0  0  0  0  0  0  0  0
    7.3746   -0.6207   21.3287 N   0  0  0  0  0  0  0  0  0  0  0  0
    6.9504   -1.2329   22.6308 C   0  0  0  0  0  0  0  0  0  0  0  0
    5.5370   -1.4356   23.0906 O   0  0  0  0  0  0  0  0  0  0  0  0
    8.1875   -1.6067   23.3922 C   0  0  0  0  0  0  0  0  0  0  0  0
    6.9095   -1.9317   24.1072 C   0  0  0  0  0  0  0  0  0  0  0  0
    6.9506   -2.5739   25.4621 N   0  0  0  0  0  0  0  0  0  0  0  0
    8.2696   -2.8911   26.1021 C   0  0  0  0  0  0  0  0  0  0  0  0
    8.3106   -3.5333   27.4570 O   0  0  0  0  0  0  0  0  0  0  0  0
    9.5476   -2.5662   25.3871 C   0  0  0  0  0  0  0  0  0  0  0  0
   10.8666   -2.8834   26.0271 C   0  0  0  0  0  0  0  0  0  0  0  0
   12.1445   -2.5584   25.3121 C   0  0  0  0  0  0  0  0  0  0  0  0
   12.1035   -1.9162   23.9571 C   0  0  0  0  0  0  0  0  0  0  0  0
   13.3815   -1.5912   23.2422 Cl  0  0  0  0  0  0  0  0  0  0  0  0
   10.7845   -1.5990   23.3172 C   0  0  0  0  0  0  0  0  0  0  0  0
    9.5066   -1.9240   24.0321 C   0  0  0  0  0  0  0  0  0  0  0  0
    6.4601   -0.1038   20.2580 C   0  0  0  0  0  0  0  0  0  0  0  0
    6.4064   -0.7866   18.9236 C   0  0  0  0  0  0  0  0  0  0  0  0
    5.4918   -0.2697   17.8529 N   0  0  0  0  0  0  0  0  0  0  0  0
    4.6310    0.9300   18.1167 C   0  0  0  0  0  0  0  0  0  0  0  0
    4.6847    1.6128   19.4513 C   0  0  0  0  0  0  0  0  0  0  0  0
    3.8238    2.8126   19.7151 C   0  0  0  0  0  0  0  0  0  0  0  0
    3.8775    3.4953   21.0496 C   0  0  0  0  0  0  0  0  0  0  0  0
    4.7920    2.9784   22.1202 C   0  0  0  0  0  0  0  0  0  0  0  0
    5.6529    1.7787   21.8564 C   0  0  0  0  0  0  0  0  0  0  0  0
    5.5992    1.0959   20.5220 C   0  0  0  0  0  0  0  0  0  0  0  0
    5.6726   -2.8989   26.1771 C   0  0  0  0  0  0  0  0  0  0  0  0
    5.2080   -4.3219   26.2735 C   0  0  0  0  0  0  0  0  0  0  0  0
    3.9993   -4.6622   27.0938 N   0  0  0  0  0  0  0  0  0  0  0  0
    2.8974   -3.6578   27.2583 C   0  0  0  0  0  0  0  0  0  0  0  0
    1.6886   -3.9981   28.0786 C   0  0  0  0  0  0  0  0  0  0  0  0
    1.5816   -5.3429   28.7344 S   0  0  0  0  0  0  0  0  0  0  0  0
    1.0248   -6.4755   29.5451 O   0  0  0  0  0  0  0  0  0  0  0  0
    0.2864   -4.7318   29.1804 O   0  0  0  0  0  0  0  0  0  0  0  0
    2.6834   -6.3474   28.5699 C   0  0  0  0  0  0  0  0  0  0  0  0
    3.8923   -6.0070   27.7496 C   0  0  0  0  0  0  0  0  0  0  0  0
  2  1  1  0  0  0
  2  3  1  0  0  0
  3  4  1  0  0  0
  4 19  1  0  0  0
 19 20  2  0  0  0
 20 21  1  0  0  0
 21 22  2  0  0  0
 22 23  1  0  0  0
 23 24  2  0  0  0
 24 25  1  0  0  0
 25 26  2  0  0  0
 26 27  1  0  0  0
 27 28  2  0  0  0
  4  5  1  0  0  0
  5  6  2  0  0  0
  5  7  1  0  0  0
  7  8  1  0  0  0
  8  9  1  0  0  0
  9 29  1  0  0  0
 29 30  1  0  0  0
 30 31  1  0  0  0
 31 32  1  0  0  0
 32 33  1  0  0  0
 33 34  1  0  0  0
 34 35  2  0  0  0
 34 36  2  0  0  0
 34 37  1  0  0  0
 37 38  1  0  0  0
  9 10  1  0  0  0
 10 11  2  0  0  0
 10 12  1  0  0  0
 12 13  2  0  0  0
 13 14  1  0  0  0
 14 15  2  0  0  0
 15 16  1  0  0  0
 15 17  1  0  0  0
 17 18  2  0  0  0
  7  2  1  0  0  0
 38 31  1  0  0  0
 18 12  1  0  0  0
 28 19  1  0  0  0
 18  7  1  0  0  0
 28 23  1  0  0  0
M  END
> <minimizedAffinity>
-8.22222

> <CNNscore>
0.3605700731

> <CNNaffinity>
6.6022920609

> <CNN_VS>
2.3805890083

> <CNNaffinity_variance>
0.0177896582

$$$$



 38 43  0  0  0  0  0  0  0  0999 V2000
   10.7896   -3.1283   25.9999 C   0  0  0  0  0  0  0  0  0  0  0  0
    9.3787   -2.7873   25.6214 C   0  0  0  0  0  0  0  0  0  0  0  0
    8.3907   -3.7509   26.2092 C   0  0  0  0  0  0  0  0  0  0  0  0
    7.0179   -3.3287   25.7767 N   0  0  0  0  0  0  0  0  0  0  0  0
    7.1574   -2.1042   24.9217 C   0  0  0  0  0  0  0  0  0  0  0  0
    6.0349   -1.3471   24.2760 O   0  0  0  0  0  0  0  0  0  0  0  0
    8.6165   -1.7696   24.8257 C   0  0  0  0  0  0  0  0  0  0  0  0
    7.7239   -0.8288   24.0719 C   0  0  0  0  0  0  0  0  0  0  0  0
    8.3167    0.3216   23.3134 N   0  0  0  0  0  0  0  0  0  0  0  0
    9.8019    0.5311   23.3086 C   0  0  0  0  0  0  0  0  0  0  0  0
   10.3947    1.6815   22.5501 O   0  0  0  0  0  0  0  0  0  0  0  0
   10.6945   -0.4097   24.0624 C   0  0  0  0  0  0  0  0  0  0  0  0
   12.1798   -0.2002   24.0577 C   0  0  0  0  0  0  0  0  0  0  0  0
   13.0723   -1.1410   24.8114 C   0  0  0  0  0  0  0  0  0  0  0  0
   12.4796   -2.2914   25.5700 C   0  0  0  0  0  0  0  0  0  0  0  0
   13.3722   -3.2322   26.3238 Cl  0  0  0  0  0  0  0  0  0  0  0  0
   10.9943   -2.5009   25.5747 C   0  0  0  0  0  0  0  0  0  0  0  0
   10.1018   -1.5601   24.8209 C   0  0  0  0  0  0  0  0  0  0  0  0
    5.7314   -4.0111   26.1362 C   0  0  0  0  0  0  0  0  0  0  0  0
    5.0046   -4.8296   25.1107 C   0  0  0  0  0  0  0  0  0  0  0  0
    3.7181   -5.5121   25.4701 N   0  0  0  0  0  0  0  0  0  0  0  0
    3.1585   -5.3760   26.8551 C   0  0  0  0  0  0  0  0  0  0  0  0
    3.8853   -4.5574   27.8807 C   0  0  0  0  0  0  0  0  0  0  0  0
    3.3256   -4.4213   29.2657 C   0  0  0  0  0  0  0  0  0  0  0  0
    4.0525   -3.6028   30.2912 C   0  0  0  0  0  0  0  0  0  0  0  0
    5.3389   -2.9204   29.9317 C   0  0  0  0  0  0  0  0  0  0  0  0
    5.8986   -3.0565   28.5467 C   0  0  0  0  0  0  0  0  0  0  0  0
    5.1718   -3.8750   27.5212 C   0  0  0  0  0  0  0  0  0  0  0  0
    7.4241    1.2624   22.5596 C   0  0  0  0  0  0  0  0  0  0  0  0
    6.6709    0.7792   21.3557 C   0  0  0  0  0  0  0  0  0  0  0  0
    5.4725    1.5372   20.8668 N   0  0  0  0  0  0  0  0  0  0  0  0
    4.7897    1.1228   19.5971 C   0  0  0  0  0  0  0  0  0  0  0  0
    3.5913    1.8808   19.1081 C   0  0  0  0  0  0  0  0  0  0  0  0
    3.0757    3.0533   19.8887 S   0  0  0  0  0  0  0  0  0  0  0  0
    2.2197    4.2229   20.2750 O   0  0  0  0  0  0  0  0  0  0  0  0
    2.0956    3.0451   18.7532 O   0  0  0  0  0  0  0  0  0  0  0  0
    3.7584    3.4678   21.1583 C   0  0  0  0  0  0  0  0  0  0  0  0
    4.9569    2.7097   21.6474 C   0  0  0  0  0  0  0  0  0  0  0  0
  2  1  1  0  0  0
  2  3  1  0  0  0
  3  4  1  0  0  0
  4 19  1  0  0  0
 19 20  2  0  0  0
 20 21  1  0  0  0
 21 22  2  0  0  0
 22 23  1  0  0  0
 23 24  2  0  0  0
 24 25  1  0  0  0
 25 26  2  0  0  0
 26 27  1  0  0  0
 27 28  2  0  0  0
  4  5  1  0  0  0
  5  6  2  0  0  0
  5  7  1  0  0  0
  7  8  1  0  0  0
  8  9  1  0  0  0
  9 29  1  0  0  0
 29 30  1  0  0  0
 30 31  1  0  0  0
 31 32  1  0  0  0
 32 33  1  0  0  0
 33 34  1  0  0  0
 34 35  2  0  0  0
 34 36  2  0  0  0
 34 37  1  0  0  0
 37 38  1  0  0  0
  9 10  1  0  0  0
 10 11  2  0  0  0
 10 12  1  0  0  0
 12 13  2  0  0  0
 13 14  1  0  0  0
 14 15  2  0  0  0
 15 16  1  0  0  0
 15 17  1  0  0  0
 17 18  2  0  0  0
  7  2  1  0  0  0
 38 31  1  0  0  0
 18 12  1  0  0  0
 28 19  1  0  0  0
 18  7  1  0  0  0
 28 23  1  0  0  0
M  END
> <minimizedAffinity>
-8.99829

> <CNNscore>
0.3286685050

> <CNNaffinity>
6.5218162537

> <CNN_VS>
2.1435155869

> <CNNaffinity_variance>
0.1191821545

$$$$



 38 43  0  0  0  0  0  0  0  0999 V2000
    7.4863   -3.4149   23.3371 C   0  0  0  0  0  0  0  0  0  0  0  0
    7.6752   -2.0946   22.6505 C   0  0  0  0  0  0  0  0  0  0  0  0
    6.6128   -1.8387   21.6229 C   0  0  0  0  0  0  0  0  0  0  0  0
    6.8865   -0.5037   20.9960 N   0  0  0  0  0  0  0  0  0  0  0  0
    8.1179    0.0653   21.6362 C   0  0  0  0  0  0  0  0  0  0  0  0
    8.7507    1.3858   21.3109 O   0  0  0  0  0  0  0  0  0  0  0  0
    8.6053   -0.9179   22.6587 C   0  0  0  0  0  0  0  0  0  0  0  0
    9.4452    0.3205   22.5542 C   0  0  0  0  0  0  0  0  0  0  0  0
   10.6511    0.4851   23.4310 N   0  0  0  0  0  0  0  0  0  0  0  0
   11.0171   -0.5887   24.4123 C   0  0  0  0  0  0  0  0  0  0  0  0
   12.2229   -0.4241   25.2891 O   0  0  0  0  0  0  0  0  0  0  0  0
   10.1772   -1.8271   24.5169 C   0  0  0  0  0  0  0  0  0  0  0  0
   10.5431   -2.9009   25.4982 C   0  0  0  0  0  0  0  0  0  0  0  0
    9.7032   -4.1393   25.6027 C   0  0  0  0  0  0  0  0  0  0  0  0
    8.4974   -4.3039   24.7259 C   0  0  0  0  0  0  0  0  0  0  0  0
    7.6575   -5.5424   24.8304 Cl  0  0  0  0  0  0  0  0  0  0  0  0
    8.1314   -3.2301   23.7446 C   0  0  0  0  0  0  0  0  0  0  0  0
    8.9713   -1.9917   23.6401 C   0  0  0  0  0  0  0  0  0  0  0  0
    6.0717    0.1478   19.9181 C   0  0  0  0  0  0  0  0  0  0  0  0
    6.4907    0.0245   18.4832 C   0  0  0  0  0  0  0  0  0  0  0  0
    5.6760    0.6760   17.4054 N   0  0  0  0  0  0  0  0  0  0  0  0
    4.4423    1.4509   17.7626 C   0  0  0  0  0  0  0  0  0  0  0  0
    4.0233    1.5742   19.1976 C   0  0  0  0  0  0  0  0  0  0  0  0
    2.7896    2.3491   19.5548 C   0  0  0  0  0  0  0  0  0  0  0  0
    2.3707    2.4723   20.9898 C   0  0  0  0  0  0  0  0  0  0  0  0
    3.1854    1.8208   22.0676 C   0  0  0  0  0  0  0  0  0  0  0  0
    4.4191    1.0460   21.7104 C   0  0  0  0  0  0  0  0  0  0  0  0
    4.8380    0.9227   20.2754 C   0  0  0  0  0  0  0  0  0  0  0  0
   11.4910    1.7236   23.3265 C   0  0  0  0  0  0  0  0  0  0  0  0
   11.2011    2.7386   22.2609 C   0  0  0  0  0  0  0  0  0  0  0  0
   10.5913    4.0588   22.6286 N   0  0  0  0  0  0  0  0  0  0  0  0
   11.4280    5.3036   22.6062 C   0  0  0  0  0  0  0  0  0  0  0  0
   10.8182    6.6238   22.9740 C   0  0  0  0  0  0  0  0  0  0  0  0
    9.3718    6.6992   23.3641 S   0  0  0  0  0  0  0  0  0  0  0  0
    8.0574    7.2765   23.7989 O   0  0  0  0  0  0  0  0  0  0  0  0
    9.7519    8.1445   23.4928 O   0  0  0  0  0  0  0  0  0  0  0  0
    8.5351    5.4544   23.3865 C   0  0  0  0  0  0  0  0  0  0  0  0
    9.1449    4.1342   23.0187 C   0  0  0  0  0  0  0  0  0  0  0  0
  2  1  1  0  0  0
  2  3  1  0  0  0
  3  4  1  0  0  0
  4 19  1  0  0  0
 19 20  2  0  0  0
 20 21  1  0  0  0
 21 22  2  0  0  0
 22 23  1  0  0  0
 23 24  2  0  0  0
 24 25  1  0  0  0
 25 26  2  0  0  0
 26 27  1  0  0  0
 27 28  2  0  0  0
  4  5  1  0  0  0
  5  6  2  0  0  0
  5  7  1  0  0  0
  7  8  1  0  0  0
  8  9  1  0  0  0
  9 29  1  0  0  0
 29 30  1  0  0  0
 30 31  1  0  0  0
 31 32  1  0  0  0
 32 33  1  0  0  0
 33 34  1  0  0  0
 34 35  2  0  0  0
 34 36  2  0  0  0
 34 37  1  0  0  0
 37 38  1  0  0  0
  9 10  1  0  0  0
 10 11  2  0  0  0
 10 12  1  0  0  0
 12 13  2  0  0  0
 13 14  1  0  0  0
 14 15  2  0  0  0
 15 16  1  0  0  0
 15 17  1  0  0  0
 17 18  2  0  0  0
  7  2  1  0  0  0
 38 31  1  0  0  0
 18 12  1  0  0  0
 28 19  1  0  0  0
 18  7  1  0  0  0
 28 23  1  0  0  0
M  END
> <minimizedAffinity>
-9.55098

> <CNNscore>
0.3064032793

> <CNNaffinity>
6.7485709190

> <CNN_VS>
2.0677843094

> <CNNaffinity_variance>
0.2634783983

$$$$



 38 43  0  0  0  0  0  0  0  0999 V2000
   10.6512    0.1035   22.4485 C   0  0  0  0  0  0  0  0  0  0  0  0
    9.2814   -0.4207   22.1336 C   0  0  0  0  0  0  0  0  0  0  0  0
    8.5663    0.4403   21.1349 C   0  0  0  0  0  0  0  0  0  0  0  0
    7.2151   -0.1621   20.8870 N   0  0  0  0  0  0  0  0  0  0  0  0
    7.0952   -1.3953   21.7324 C   0  0  0  0  0  0  0  0  0  0  0  0
    5.9069   -2.3084   21.7962 O   0  0  0  0  0  0  0  0  0  0  0  0
    8.3723   -1.5551   22.5029 C   0  0  0  0  0  0  0  0  0  0  0  0
    7.3586   -2.6273   22.7729 C   0  0  0  0  0  0  0  0  0  0  0  0
    7.6715   -3.7282   23.7424 N   0  0  0  0  0  0  0  0  0  0  0  0
    8.9981   -3.7571   24.4419 C   0  0  0  0  0  0  0  0  0  0  0  0
    9.3110   -4.8580   25.4114 O   0  0  0  0  0  0  0  0  0  0  0  0
   10.0119   -2.6849   24.1718 C   0  0  0  0  0  0  0  0  0  0  0  0
   11.3384   -2.7137   24.8713 C   0  0  0  0  0  0  0  0  0  0  0  0
   12.3521   -1.6416   24.6013 C   0  0  0  0  0  0  0  0  0  0  0  0
   12.0392   -0.5406   23.6318 C   0  0  0  0  0  0  0  0  0  0  0  0
   13.0529    0.5316   23.3617 Cl  0  0  0  0  0  0  0  0  0  0  0  0
   10.7126   -0.5118   22.9323 C   0  0  0  0  0  0  0  0  0  0  0  0
    9.6989   -1.5839   23.2023 C   0  0  0  0  0  0  0  0  0  0  0  0
    6.1677    0.3745   19.9569 C   0  0  0  0  0  0  0  0  0  0  0  0
    6.0955   -0.1207   18.5429 C   0  0  0  0  0  0  0  0  0  0  0  0
    5.0481    0.4159   17.6129 N   0  0  0  0  0  0  0  0  0  0  0  0
    4.0730    1.4478   18.0968 C   0  0  0  0  0  0  0  0  0  0  0  0
    4.1452    1.9431   19.5109 C   0  0  0  0  0  0  0  0  0  0  0  0
    3.1700    2.9751   19.9949 C   0  0  0  0  0  0  0  0  0  0  0  0
    3.2424    3.4703   21.4089 C   0  0  0  0  0  0  0  0  0  0  0  0
    4.2897    2.9336   22.3389 C   0  0  0  0  0  0  0  0  0  0  0  0
    5.2649    1.9017   21.8549 C   0  0  0  0  0  0  0  0  0  0  0  0
    5.1926    1.4065   20.4410 C   0  0  0  0  0  0  0  0  0  0  0  0
    6.6578   -4.8004   24.0124 C   0  0  0  0  0  0  0  0  0  0  0  0
    5.3146   -4.4385   24.5734 C   0  0  0  0  0  0  0  0  0  0  0  0
    5.1426   -4.2619   26.0529 N   0  0  0  0  0  0  0  0  0  0  0  0
    4.2008   -5.1507   26.8099 C   0  0  0  0  0  0  0  0  0  0  0  0
    4.0288   -4.9741   28.2895 C   0  0  0  0  0  0  0  0  0  0  0  0
    4.7986   -3.9087   29.0122 S   0  0  0  0  0  0  0  0  0  0  0  0
    5.3020   -3.0482   30.1328 O   0  0  0  0  0  0  0  0  0  0  0  0
    4.0316   -4.4987   30.1583 O   0  0  0  0  0  0  0  0  0  0  0  0
    5.7403   -3.0199   28.2553 C   0  0  0  0  0  0  0  0  0  0  0  0
    5.9124   -3.1964   26.7756 C   0  0  0  0  0  0  0  0  0  0  0  0
  2  1  1  0  0  0
  2  3  1  0  0  0
  3  4  1  0  0  0
  4 19  1  0  0  0
 19 20  2  0  0  0
 20 21  1  0  0  0
 21 22  2  0  0  0
 22 23  1  0  0  0
 23 24  2  0  0  0
 24 25  1  0  0  0
 25 26  2  0  0  0
 26 27  1  0  0  0
 27 28  2  0  0  0
  4  5  1  0  0  0
  5  6  2  0  0  0
  5  7  1  0  0  0
  7  8  1  0  0  0
  8  9  1  0  0  0
  9 29  1  0  0  0
 29 30  1  0  0  0
 30 31  1  0  0  0
 31 32  1  0  0  0
 32 33  1  0  0  0
 33 34  1  0  0  0
 34 35  2  0  0  0
 34 36  2  0  0  0
 34 37  1  0  0  0
 37 38  1  0  0  0
  9 10  1  0  0  0
 10 11  2  0  0  0
 10 12  1  0  0  0
 12 13  2  0  0  0
 13 14  1  0  0  0
 14 15  2  0  0  0
 15 16  1  0  0  0
 15 17  1  0  0  0
 17 18  2  0  0  0
  7  2  1  0  0  0
 38 31  1  0  0  0
 18 12  1  0  0  0
 28 19  1  0  0  0
 18  7  1  0  0  0
 28 23  1  0  0  0
M  END
> <minimizedAffinity>
-8.55262

> <CNNscore>
0.2985949218

> <CNNaffinity>
6.6264548302

> <CNN_VS>
1.9786257744

> <CNNaffinity_variance>
0.0166216213

$$$$



 38 43  0  0  0  0  0  0  0  0999 V2000
   10.8856   -2.1515   23.8614 C   0  0  0  0  0  0  0  0  0  0  0  0
    9.4172   -1.9233   24.0657 C   0  0  0  0  0  0  0  0  0  0  0  0
    8.6999   -3.1850   24.4448 C   0  0  0  0  0  0  0  0  0  0  0  0
    7.2477   -2.8560   24.6259 N   0  0  0  0  0  0  0  0  0  0  0  0
    7.0675   -1.3910   24.3588 C   0  0  0  0  0  0  0  0  0  0  0  0
    5.7736   -0.6352   24.4260 O   0  0  0  0  0  0  0  0  0  0  0  0
    8.4083   -0.8146   24.0126 C   0  0  0  0  0  0  0  0  0  0  0  0
    7.2919    0.1871   23.9995 C   0  0  0  0  0  0  0  0  0  0  0  0
    7.5742    1.6206   23.6598 N   0  0  0  0  0  0  0  0  0  0  0  0
    8.9730    2.0524   23.3331 C   0  0  0  0  0  0  0  0  0  0  0  0
    9.2554    3.4859   22.9933 O   0  0  0  0  0  0  0  0  0  0  0  0
   10.0896    1.0507   23.3461 C   0  0  0  0  0  0  0  0  0  0  0  0
   11.4884    1.4826   23.0194 C   0  0  0  0  0  0  0  0  0  0  0  0
   12.6048    0.4809   23.0324 C   0  0  0  0  0  0  0  0  0  0  0  0
   12.3225   -0.9525   23.3721 C   0  0  0  0  0  0  0  0  0  0  0  0
   13.4390   -1.9542   23.3852 Cl  0  0  0  0  0  0  0  0  0  0  0  0
   10.9237   -1.3844   23.6989 C   0  0  0  0  0  0  0  0  0  0  0  0
    9.8072   -0.3827   23.6858 C   0  0  0  0  0  0  0  0  0  0  0  0
    6.1656   -3.8223   25.0072 C   0  0  0  0  0  0  0  0  0  0  0  0
    5.5297   -4.6876   23.9600 C   0  0  0  0  0  0  0  0  0  0  0  0
    4.4476   -5.6539   24.3413 N   0  0  0  0  0  0  0  0  0  0  0  0
    4.0016   -5.7548   25.7699 C   0  0  0  0  0  0  0  0  0  0  0  0
    4.6375   -4.8895   26.8172 C   0  0  0  0  0  0  0  0  0  0  0  0
    4.1914   -4.9905   28.2458 C   0  0  0  0  0  0  0  0  0  0  0  0
    4.8275   -4.1251   29.2930 C   0  0  0  0  0  0  0  0  0  0  0  0
    5.9095   -3.1588   28.9116 C   0  0  0  0  0  0  0  0  0  0  0  0
    6.3555   -3.0579   27.4830 C   0  0  0  0  0  0  0  0  0  0  0  0
    5.7196   -3.9232   26.4358 C   0  0  0  0  0  0  0  0  0  0  0  0
    6.4577    2.6222   23.6468 C   0  0  0  0  0  0  0  0  0  0  0  0
    5.2969    2.4393   22.7146 C   0  0  0  0  0  0  0  0  0  0  0  0
    5.4870    1.7195   21.4124 N   0  0  0  0  0  0  0  0  0  0  0  0
    4.4470    1.8278   20.3368 C   0  0  0  0  0  0  0  0  0  0  0  0
    4.6371    1.1080   19.0346 C   0  0  0  0  0  0  0  0  0  0  0  0
    5.8671    0.2799   18.8080 S   0  0  0  0  0  0  0  0  0  0  0  0
    6.8551   -0.6190   18.1255 O   0  0  0  0  0  0  0  0  0  0  0  0
    5.1702    0.0760   17.4954 O   0  0  0  0  0  0  0  0  0  0  0  0
    6.9070    0.1717   19.8835 C   0  0  0  0  0  0  0  0  0  0  0  0
    6.7170    0.8915   21.1857 C   0  0  0  0  0  0  0  0  0  0  0  0
  2  1  1  0  0  0
  2  3  1  0  0  0
  3  4  1  0  0  0
  4 19  1  0  0  0
 19 20  2  0  0  0
 20 21  1  0  0  0
 21 22  2  0  0  0
 22 23  1  0  0  0
 23 24  2  0  0  0
 24 25  1  0  0  0
 25 26  2  0  0  0
 26 27  1  0  0  0
 27 28  2  0  0  0
  4  5  1  0  0  0
  5  6  2  0  0  0
  5  7  1  0  0  0
  7  8  1  0  0  0
  8  9  1  0  0  0
  9 29  1  0  0  0
 29 30  1  0  0  0
 30 31  1  0  0  0
 31 32  1  0  0  0
 32 33  1  0  0  0
 33 34  1  0  0  0
 34 35  2  0  0  0
 34 36  2  0  0  0
 34 37  1  0  0  0
 37 38  1  0  0  0
  9 10  1  0  0  0
 10 11  2  0  0  0
 10 12  1  0  0  0
 12 13  2  0  0  0
 13 14  1  0  0  0
 14 15  2  0  0  0
 15 16  1  0  0  0
 15 17  1  0  0  0
 17 18  2  0  0  0
  7  2  1  0  0  0
 38 31  1  0  0  0
 18 12  1  0  0  0
 28 19  1  0  0  0
 18  7  1  0  0  0
 28 23  1  0  0  0
M  END
> <minimizedAffinity>
-9.40897

> <CNNscore>
0.2970587015

> <CNNaffinity>
6.7989549637

> <CNN_VS>
2.0196888447

> <CNNaffinity_variance>
0.0271719955

$$$$



 38 43  0  0  0  0  0  0  0  0999 V2000
   10.6455   -2.2998   24.8545 C   0  0  0  0  0  0  0  0  0  0  0  0
    9.2763   -2.6481   24.3504 C   0  0  0  0  0  0  0  0  0  0  0  0
    8.7772   -3.9399   24.9268 C   0  0  0  0  0  0  0  0  0  0  0  0
    7.4103   -4.2001   24.3664 N   0  0  0  0  0  0  0  0  0  0  0  0
    7.0647   -3.0691   23.4437 C   0  0  0  0  0  0  0  0  0  0  0  0
    5.7896   -2.9229   22.6673 O   0  0  0  0  0  0  0  0  0  0  0  0
    8.2179   -2.1099   23.4338 C   0  0  0  0  0  0  0  0  0  0  0  0
    7.0745   -1.6983   22.5545 C   0  0  0  0  0  0  0  0  0  0  0  0
    7.1552   -0.4246   21.7664 N   0  0  0  0  0  0  0  0  0  0  0  0
    8.3792    0.4376   21.8576 C   0  0  0  0  0  0  0  0  0  0  0  0
    8.4599    1.7113   21.0695 O   0  0  0  0  0  0  0  0  0  0  0  0
    9.5227    0.0260   22.7370 C   0  0  0  0  0  0  0  0  0  0  0  0
   10.7467    0.8882   22.8282 C   0  0  0  0  0  0  0  0  0  0  0  0
   11.8901    0.4766   23.7075 C   0  0  0  0  0  0  0  0  0  0  0  0
   11.8094   -0.7971   24.4956 C   0  0  0  0  0  0  0  0  0  0  0  0
   12.9529   -1.2087   25.3750 Cl  0  0  0  0  0  0  0  0  0  0  0  0
   10.5854   -1.6593   24.4044 C   0  0  0  0  0  0  0  0  0  0  0  0
    9.4420   -1.2477   23.5251 C   0  0  0  0  0  0  0  0  0  0  0  0
    6.5416   -5.3834   24.6746 C   0  0  0  0  0  0  0  0  0  0  0  0
    6.9082   -6.7399   24.1497 C   0  0  0  0  0  0  0  0  0  0  0  0
    6.0395   -7.9232   24.4579 N   0  0  0  0  0  0  0  0  0  0  0  0
    4.8042   -7.7501   25.2911 C   0  0  0  0  0  0  0  0  0  0  0  0
    4.4377   -6.3936   25.8160 C   0  0  0  0  0  0  0  0  0  0  0  0
    3.2023   -6.2204   26.6491 C   0  0  0  0  0  0  0  0  0  0  0  0
    2.8358   -4.8639   27.1740 C   0  0  0  0  0  0  0  0  0  0  0  0
    3.7045   -3.6806   26.8658 C   0  0  0  0  0  0  0  0  0  0  0  0
    4.9398   -3.8538   26.0327 C   0  0  0  0  0  0  0  0  0  0  0  0
    5.3064   -5.2102   25.5078 C   0  0  0  0  0  0  0  0  0  0  0  0
    6.0117   -0.0130   20.8870 C   0  0  0  0  0  0  0  0  0  0  0  0
    4.6768    0.3054   21.4925 C   0  0  0  0  0  0  0  0  0  0  0  0
    4.1403    1.7048   21.4315 N   0  0  0  0  0  0  0  0  0  0  0  0
    4.8989    2.8276   22.0749 C   0  0  0  0  0  0  0  0  0  0  0  0
    4.3623    4.2270   22.0139 C   0  0  0  0  0  0  0  0  0  0  0  0
    3.0672    4.5037   21.3095 S   0  0  0  0  0  0  0  0  0  0  0  0
    1.8941    5.2616   20.7626 O   0  0  0  0  0  0  0  0  0  0  0  0
    3.4184    5.8897   21.7630 O   0  0  0  0  0  0  0  0  0  0  0  0
    2.3087    3.3809   20.6661 C   0  0  0  0  0  0  0  0  0  0  0  0
    2.8452    1.9814   20.7271 C   0  0  0  0  0  0  0  0  0  0  0  0
  2  1  1  0  0  0
  2  3  1  0  0  0
  3  4  1  0  0  0
  4 19  1  0  0  0
 19 20  2  0  0  0
 20 21  1  0  0  0
 21 22  2  0  0  0
 22 23  1  0  0  0
 23 24  2  0  0  0
 24 25  1  0  0  0
 25 26  2  0  0  0
 26 27  1  0  0  0
 27 28  2  0  0  0
  4  5  1  0  0  0
  5  6  2  0  0  0
  5  7  1  0  0  0
  7  8  1  0  0  0
  8  9  1  0  0  0
  9 29  1  0  0  0
 29 30  1  0  0  0
 30 31  1  0  0  0
 31 32  1  0  0  0
 32 33  1  0  0  0
 33 34  1  0  0  0
 34 35  2  0  0  0
 34 36  2  0  0  0
 34 37  1  0  0  0
 37 38  1  0  0  0
  9 10  1  0  0  0
 10 11  2  0  0  0
 10 12  1  0  0  0
 12 13  2  0  0  0
 13 14  1  0  0  0
 14 15  2  0  0  0
 15 16  1  0  0  0
 15 17  1  0  0  0
 17 18  2  0  0  0
  7  2  1  0  0  0
 38 31  1  0  0  0
 18 12  1  0  0  0
 28 19  1  0  0  0
 18  7  1  0  0  0
 28 23  1  0  0  0
M  END
> <minimizedAffinity>
-8.74797

> <CNNscore>
0.2786718905

> <CNNaffinity>
6.4908666611

> <CNN_VS>
1.8088220358

> <CNNaffinity_variance>
0.1656948328

$$$$
