


 31 35  0  0  0  0  0  0  0  0999 V2000
    9.1227   -0.9218   23.6113 C   0  0  0  0  0  0  0  0  0  0  0  0
    7.9652   -1.3139   22.7415 C   0  0  0  0  0  0  0  0  0  0  0  0
    7.5924   -0.2262   21.7783 C   0  0  0  0  0  0  0  0  0  0  0  0
    6.4331   -0.7102   20.9586 N   0  0  0  0  0  0  0  0  0  0  0  0
    6.0895   -2.0971   21.4153 C   0  0  0  0  0  0  0  0  0  0  0  0
    4.9917   -2.9594   20.8664 O   0  0  0  0  0  0  0  0  0  0  0  0
    7.0364   -2.4702   22.5172 C   0  0  0  0  0  0  0  0  0  0  0  0
    6.0402   -3.5398   22.1806 C   0  0  0  0  0  0  0  0  0  0  0  0
    6.0555   -4.8408   22.9271 N   0  0  0  0  0  0  0  0  0  0  0  0
    7.0672   -5.0721   24.0102 C   0  0  0  0  0  0  0  0  0  0  0  0
    7.0825   -6.3731   24.7567 O   0  0  0  0  0  0  0  0  0  0  0  0
    8.0635   -4.0025   24.3468 C   0  0  0  0  0  0  0  0  0  0  0  0
    9.0751   -4.2338   25.4299 C   0  0  0  0  0  0  0  0  0  0  0  0
   10.0713   -3.1641   25.7665 C   0  0  0  0  0  0  0  0  0  0  0  0
   10.0559   -1.8632   25.0200 C   0  0  0  0  0  0  0  0  0  0  0  0
   11.0522   -0.7935   25.3567 F   0  0  0  0  0  0  0  0  0  0  0  0
    9.0443   -1.6318   23.9369 C   0  0  0  0  0  0  0  0  0  0  0  0
    8.0481   -2.7015   23.6003 C   0  0  0  0  0  0  0  0  0  0  0  0
    5.7392    0.0578   19.8729 C   0  0  0  0  0  0  0  0  0  0  0  0
    6.2376   -0.0237   18.4606 C   0  0  0  0  0  0  0  0  0  0  0  0
    5.5438    0.7442   17.3749 N   0  0  0  0  0  0  0  0  0  0  0  0
    4.3515    1.5938   17.7016 C   0  0  0  0  0  0  0  0  0  0  0  0
    3.8531    1.6753   19.1141 C   0  0  0  0  0  0  0  0  0  0  0  0
    2.6607    2.5248   19.4408 C   0  0  0  0  0  0  0  0  0  0  0  0
    2.1624    2.6063   20.8532 C   0  0  0  0  0  0  0  0  0  0  0  0
    2.8563    1.8383   21.9388 C   0  0  0  0  0  0  0  0  0  0  0  0
    4.0485    0.9888   21.6121 C   0  0  0  0  0  0  0  0  0  0  0  0
    4.5469    0.9073   20.1998 C   0  0  0  0  0  0  0  0  0  0  0  0
    5.0592   -5.9105   22.5905 C   0  0  0  0  0  0  0  0  0  0  0  0
    3.8404   -6.0959   23.4449 C   0  0  0  0  0  0  0  0  0  0  0  0
    2.6216   -6.2814   24.2993 N   0  0  0  0  0  0  0  0  0  0  0  0
  2  1  1  0  0  0
  2  3  1  0  0  0
  3  4  1  0  0  0
  4 19  1  0  0  0
 19 20  2  0  0  0
 20 21  1  0  0  0
 21 22  2  0  0  0
 22 23  1  0  0  0
 23 24  2  0  0  0
 24 25  1  0  0  0
 25 26  2  0  0  0
 26 27  1  0  0  0
 27 28  2  0  0  0
  4  5  1  0  0  0
  5  6  2  0  0  0
  5  7  1  0  0  0
  7  8  1  0  0  0
  8  9  1  0  0  0
  9 29  1  0  0  0
 29 30  1  0  0  0
 30 31  3  0  0  0
  9 10  1  0  0  0
 10 11  2  0  0  0
 10 12  1  0  0  0
 12 13  2  0  0  0
 13 14  1  0  0  0
 14 15  2  0  0  0
 15 16  1  0  0  0
 15 17  1  0  0  0
 17 18  2  0  0  0
  7  2  1  0  0  0
 18 12  1  0  0  0
 28 19  1  0  0  0
 18  7  1  0  0  0
 28 23  1  0  0  0
M  END
> <minimizedAffinity>
-7.76387

> <CNNscore>
0.6630558968

> <CNNaffinity>
6.3129062653

> <CNN_VS>
4.1858096123

> <CNNaffinity_variance>
0.0274531879

$$$$



 31 35  0  0  0  0  0  0  0  0999 V2000
    7.5229   -3.3990   23.4931 C   0  0  0  0  0  0  0  0  0  0  0  0
    7.7152   -2.1070   22.7556 C   0  0  0  0  0  0  0  0  0  0  0  0
    6.6079   -1.8482   21.7773 C   0  0  0  0  0  0  0  0  0  0  0  0
    6.8884   -0.5424   21.0945 N   0  0  0  0  0  0  0  0  0  0  0  0
    8.1690    0.0058   21.6508 C   0  0  0  0  0  0  0  0  0  0  0  0
    8.8237    1.2947   21.2506 O   0  0  0  0  0  0  0  0  0  0  0  0
    8.6800   -0.9611   22.6774 C   0  0  0  0  0  0  0  0  0  0  0  0
    9.5506    0.2458   22.4894 C   0  0  0  0  0  0  0  0  0  0  0  0
   10.8060    0.3979   23.2961 N   0  0  0  0  0  0  0  0  0  0  0  0
   11.1908   -0.6568   24.2909 C   0  0  0  0  0  0  0  0  0  0  0  0
   12.4462   -0.5046   25.0976 O   0  0  0  0  0  0  0  0  0  0  0  0
   10.3202   -1.8637   24.4789 C   0  0  0  0  0  0  0  0  0  0  0  0
   10.7049   -2.9184   25.4736 C   0  0  0  0  0  0  0  0  0  0  0  0
    9.8343   -4.1253   25.6616 C   0  0  0  0  0  0  0  0  0  0  0  0
    8.5789   -4.2775   24.8548 C   0  0  0  0  0  0  0  0  0  0  0  0
    7.7083   -5.4845   25.0429 F   0  0  0  0  0  0  0  0  0  0  0  0
    8.1941   -3.2228   23.8601 C   0  0  0  0  0  0  0  0  0  0  0  0
    9.0648   -2.0159   23.6721 C   0  0  0  0  0  0  0  0  0  0  0  0
    6.0377    0.1020   20.0405 C   0  0  0  0  0  0  0  0  0  0  0  0
    6.4352    0.0115   18.5970 C   0  0  0  0  0  0  0  0  0  0  0  0
    5.5844    0.6559   17.5430 N   0  0  0  0  0  0  0  0  0  0  0  0
    4.3362    1.3908   17.9325 C   0  0  0  0  0  0  0  0  0  0  0  0
    3.9387    1.4813   19.3761 C   0  0  0  0  0  0  0  0  0  0  0  0
    2.6903    2.2163   19.7656 C   0  0  0  0  0  0  0  0  0  0  0  0
    2.2929    2.3067   21.2091 C   0  0  0  0  0  0  0  0  0  0  0  0
    3.1436    1.6623   22.2631 C   0  0  0  0  0  0  0  0  0  0  0  0
    4.3919    0.9274   21.8736 C   0  0  0  0  0  0  0  0  0  0  0  0
    4.7894    0.8369   20.4301 C   0  0  0  0  0  0  0  0  0  0  0  0
   11.6767    1.6049   23.1081 C   0  0  0  0  0  0  0  0  0  0  0  0
   11.0572    2.9664   22.9960 C   0  0  0  0  0  0  0  0  0  0  0  0
   10.4378    4.3279   22.8839 N   0  0  0  0  0  0  0  0  0  0  0  0
  2  1  1  0  0  0
  2  3  1  0  0  0
  3  4  1  0  0  0
  4 19  1  0  0  0
 19 20  2  0  0  0
 20 21  1  0  0  0
 21 22  2  0  0  0
 22 23  1  0  0  0
 23 24  2  0  0  0
 24 25  1  0  0  0
 25 26  2  0  0  0
 26 27  1  0  0  0
 27 28  2  0  0  0
  4  5  1  0  0  0
  5  6  2  0  0  0
  5  7  1  0  0  0
  7  8  1  0  0  0
  8  9  1  0  0  0
  9 29  1  0  0  0
 29 30  1  0  0  0
 30 31  3  0  0  0
  9 10  1  0  0  0
 10 11  2  0  0  0
 10 12  1  0  0  0
 12 13  2  0  0  0
 13 14  1  0  0  0
 14 15  2  0  0  0
 15 16  1  0  0  0
 15 17  1  0  0  0
 17 18  2  0  0  0
  7  2  1  0  0  0
 18 12  1  0  0  0
 28 19  1  0  0  0
 18  7  1  0  0  0
 28 23  1  0  0  0
M  END
> <minimizedAffinity>
-8.95409

> <CNNscore>
0.5652199388

> <CNNaffinity>
6.3554563522

> <CNN_VS>
3.5922305584

> <CNNaffinity_variance>
0.1012859568

$$$$



 31 35  0  0  0  0  0  0  0  0999 V2000
   10.9674   -3.3710   26.0241 C   0  0  0  0  0  0  0  0  0  0  0  0
    9.5860   -2.9158   25.6571 C   0  0  0  0  0  0  0  0  0  0  0  0
    8.5300   -3.8355   26.1947 C   0  0  0  0  0  0  0  0  0  0  0  0
    7.1925   -3.2994   25.7778 N   0  0  0  0  0  0  0  0  0  0  0  0
    7.4220   -2.0484   24.9826 C   0  0  0  0  0  0  0  0  0  0  0  0
    6.3588   -1.1859   24.3696 O   0  0  0  0  0  0  0  0  0  0  0  0
    8.9012   -1.8113   24.9080 C   0  0  0  0  0  0  0  0  0  0  0  0
    8.0809   -0.7764   24.1967 C   0  0  0  0  0  0  0  0  0  0  0  0
    8.7567    0.3648   23.4960 N   0  0  0  0  0  0  0  0  0  0  0  0
   10.2528    0.4712   23.5067 C   0  0  0  0  0  0  0  0  0  0  0  0
   10.9287    1.6124   22.8061 O   0  0  0  0  0  0  0  0  0  0  0  0
   11.0733   -0.5637   24.2181 C   0  0  0  0  0  0  0  0  0  0  0  0
   12.5694   -0.4574   24.2288 C   0  0  0  0  0  0  0  0  0  0  0  0
   13.3898   -1.4922   24.9401 C   0  0  0  0  0  0  0  0  0  0  0  0
   12.7140   -2.6334   25.6408 C   0  0  0  0  0  0  0  0  0  0  0  0
   13.5344   -3.6683   26.3521 F   0  0  0  0  0  0  0  0  0  0  0  0
   11.2178   -2.7398   25.6301 C   0  0  0  0  0  0  0  0  0  0  0  0
   10.3975   -1.7049   24.9187 C   0  0  0  0  0  0  0  0  0  0  0  0
    5.8596   -3.9075   26.0996 C   0  0  0  0  0  0  0  0  0  0  0  0
    5.1023   -4.6563   25.0434 C   0  0  0  0  0  0  0  0  0  0  0  0
    3.7694   -5.2644   25.3652 N   0  0  0  0  0  0  0  0  0  0  0  0
    3.1939   -5.1237   26.7432 C   0  0  0  0  0  0  0  0  0  0  0  0
    3.9513   -4.3749   27.7995 C   0  0  0  0  0  0  0  0  0  0  0  0
    3.3757   -4.2342   29.1775 C   0  0  0  0  0  0  0  0  0  0  0  0
    4.1332   -3.4854   30.2337 C   0  0  0  0  0  0  0  0  0  0  0  0
    5.4660   -2.8773   29.9119 C   0  0  0  0  0  0  0  0  0  0  0  0
    6.0415   -3.0180   28.5338 C   0  0  0  0  0  0  0  0  0  0  0  0
    5.2842   -3.7668   27.4777 C   0  0  0  0  0  0  0  0  0  0  0  0
    7.9363    1.3997   22.7847 C   0  0  0  0  0  0  0  0  0  0  0  0
    7.4336    1.1342   21.3966 C   0  0  0  0  0  0  0  0  0  0  0  0
    6.9309    0.8687   20.0085 N   0  0  0  0  0  0  0  0  0  0  0  0
  2  1  1  0  0  0
  2  3  1  0  0  0
  3  4  1  0  0  0
  4 19  1  0  0  0
 19 20  2  0  0  0
 20 21  1  0  0  0
 21 22  2  0  0  0
 22 23  1  0  0  0
 23 24  2  0  0  0
 24 25  1  0  0  0
 25 26  2  0  0  0
 26 27  1  0  0  0
 27 28  2  0  0  0
  4  5  1  0  0  0
  5  6  2  0  0  0
  5  7  1  0  0  0
  7  8  1  0  0  0
  8  9  1  0  0  0
  9 29  1  0  0  0
 29 30  1  0  0  0
 30 31  3  0  0  0
  9 10  1  0  0  0
 10 11  2  0  0  0
 10 12  1  0  0  0
 12 13  2  0  0  0
 13 14  1  0  0  0
 14 15  2  0  0  0
 15 16  1  0  0  0
 15 17  1  0  0  0
 17 18  2  0  0  0
  7  2  1  0  0  0
 18 12  1  0  0  0
 28 19  1  0  0  0
 18  7  1  0  0  0
 28 23  1  0  0  0
M  END
> <minimizedAffinity>
-7.83191

> <CNNscore>
0.5627027154

> <CNNaffinity>
6.5010023117

> <CNN_VS>
3.6581315994

> <CNNaffinity_variance>
0.1665159017

$$$$



 31 35  0  0  0  0  0  0  0  0999 V2000
   10.4563    0.2962   22.6819 C   0  0  0  0  0  0  0  0  0  0  0  0
    9.1337   -0.2712   22.2588 C   0  0  0  0  0  0  0  0  0  0  0  0
    8.4313    0.6155   21.2736 C   0  0  0  0  0  0  0  0  0  0  0  0
    7.1276   -0.0331   20.9136 N   0  0  0  0  0  0  0  0  0  0  0  0
    7.0243   -1.3206   21.6763 C   0  0  0  0  0  0  0  0  0  0  0  0
    5.8816   -2.2907   21.6179 O   0  0  0  0  0  0  0  0  0  0  0  0
    8.2641   -1.4677   22.5077 C   0  0  0  0  0  0  0  0  0  0  0  0
    7.2925   -2.6009   22.6554 C   0  0  0  0  0  0  0  0  0  0  0  0
    7.6075   -3.7439   23.5743 N   0  0  0  0  0  0  0  0  0  0  0  0
    8.8940   -3.7537   24.3454 C   0  0  0  0  0  0  0  0  0  0  0  0
    9.2089   -4.8967   25.2643 O   0  0  0  0  0  0  0  0  0  0  0  0
    9.8656   -2.6205   24.1978 C   0  0  0  0  0  0  0  0  0  0  0  0
   11.1521   -2.6303   24.9689 C   0  0  0  0  0  0  0  0  0  0  0  0
   12.1237   -1.4971   24.8212 C   0  0  0  0  0  0  0  0  0  0  0  0
   11.8088   -0.3541   23.9023 C   0  0  0  0  0  0  0  0  0  0  0  0
   12.7804    0.7791   23.7546 F   0  0  0  0  0  0  0  0  0  0  0  0
   10.5223   -0.3443   23.1311 C   0  0  0  0  0  0  0  0  0  0  0  0
    9.5507   -1.4775   23.2789 C   0  0  0  0  0  0  0  0  0  0  0  0
    6.1065    0.5103   19.9587 C   0  0  0  0  0  0  0  0  0  0  0  0
    6.0884    0.0425   18.5337 C   0  0  0  0  0  0  0  0  0  0  0  0
    5.0673    0.5859   17.5788 N   0  0  0  0  0  0  0  0  0  0  0  0
    4.0642    1.5972   18.0489 C   0  0  0  0  0  0  0  0  0  0  0  0
    4.0823    2.0651   19.4739 C   0  0  0  0  0  0  0  0  0  0  0  0
    3.0791    3.0765   19.9440 C   0  0  0  0  0  0  0  0  0  0  0  0
    3.0972    3.5443   21.3691 C   0  0  0  0  0  0  0  0  0  0  0  0
    4.1183    3.0009   22.3240 C   0  0  0  0  0  0  0  0  0  0  0  0
    5.1214    1.9895   21.8539 C   0  0  0  0  0  0  0  0  0  0  0  0
    5.1034    1.5217   20.4289 C   0  0  0  0  0  0  0  0  0  0  0  0
    6.6358   -4.8772   23.7220 C   0  0  0  0  0  0  0  0  0  0  0  0
    6.1370   -5.6007   22.5064 C   0  0  0  0  0  0  0  0  0  0  0  0
    5.6382   -6.3242   21.2908 N   0  0  0  0  0  0  0  0  0  0  0  0
  2  1  1  0  0  0
  2  3  1  0  0  0
  3  4  1  0  0  0
  4 19  1  0  0  0
 19 20  2  0  0  0
 20 21  1  0  0  0
 21 22  2  0  0  0
 22 23  1  0  0  0
 23 24  2  0  0  0
 24 25  1  0  0  0
 25 26  2  0  0  0
 26 27  1  0  0  0
 27 28  2  0  0  0
  4  5  1  0  0  0
  5  6  2  0  0  0
  5  7  1  0  0  0
  7  8  1  0  0  0
  8  9  1  0  0  0
  9 29  1  0  0  0
 29 30  1  0  0  0
 30 31  3  0  0  0
  9 10  1  0  0  0
 10 11  2  0  0  0
 10 12  1  0  0  0
 12 13  2  0  0  0
 13 14  1  0  0  0
 14 15  2  0  0  0
 15 16  1  0  0  0
 15 17  1  0  0  0
 17 18  2  0  0  0
  7  2  1  0  0  0
 18 12  1  0  0  0
 28 19  1  0  0  0
 18  7  1  0  0  0
 28 23  1  0  0  0
M  END
> <minimizedAffinity>
-8.75883

> <CNNscore>
0.4967291057

> <CNNaffinity>
6.4077835083

> <CNN_VS>
3.1829326153

> <CNNaffinity_variance>
0.0261187889

$$$$



 31 35  0  0  0  0  0  0  0  0999 V2000
    9.9735   -2.6374   26.1420 C   0  0  0  0  0  0  0  0  0  0  0  0
    9.1227   -1.5424   25.5697 C   0  0  0  0  0  0  0  0  0  0  0  0
    7.6962   -1.6446   26.0222 C   0  0  0  0  0  0  0  0  0  0  0  0
    6.9309   -0.5138   25.4013 N   0  0  0  0  0  0  0  0  0  0  0  0
    7.8844    0.2872   24.5650 C   0  0  0  0  0  0  0  0  0  0  0  0
    7.5431    1.5093   23.7651 O   0  0  0  0  0  0  0  0  0  0  0  0
    9.2390   -0.3486   24.6691 C   0  0  0  0  0  0  0  0  0  0  0  0
    9.2018    0.8681   23.7926 C   0  0  0  0  0  0  0  0  0  0  0  0
   10.4531    1.3429   23.1151 N   0  0  0  0  0  0  0  0  0  0  0  0
   11.7415    0.6011   23.3141 C   0  0  0  0  0  0  0  0  0  0  0  0
   12.9927    1.0759   22.6366 O   0  0  0  0  0  0  0  0  0  0  0  0
   11.7787   -0.6157   24.1907 C   0  0  0  0  0  0  0  0  0  0  0  0
   13.0671   -1.3575   24.3897 C   0  0  0  0  0  0  0  0  0  0  0  0
   13.1042   -2.5742   25.2662 C   0  0  0  0  0  0  0  0  0  0  0  0
   11.8530   -3.0490   25.9437 C   0  0  0  0  0  0  0  0  0  0  0  0
   11.8903   -4.2657   26.8202 F   0  0  0  0  0  0  0  0  0  0  0  0
   10.5646   -2.3071   25.7447 C   0  0  0  0  0  0  0  0  0  0  0  0
   10.5275   -1.0905   24.8682 C   0  0  0  0  0  0  0  0  0  0  0  0
    5.4688   -0.2333   25.5844 C   0  0  0  0  0  0  0  0  0  0  0  0
    4.9212    1.1274   25.2705 C   0  0  0  0  0  0  0  0  0  0  0  0
    3.4591    1.4079   25.4536 N   0  0  0  0  0  0  0  0  0  0  0  0
    2.5446    0.3278   25.9506 C   0  0  0  0  0  0  0  0  0  0  0  0
    3.0923   -1.0330   26.2645 C   0  0  0  0  0  0  0  0  0  0  0  0
    2.1778   -2.1132   26.7615 C   0  0  0  0  0  0  0  0  0  0  0  0
    2.7256   -3.4738   27.0754 C   0  0  0  0  0  0  0  0  0  0  0  0
    4.1876   -3.7543   26.8923 C   0  0  0  0  0  0  0  0  0  0  0  0
    5.1021   -2.6742   26.3953 C   0  0  0  0  0  0  0  0  0  0  0  0
    4.5544   -1.3135   26.0814 C   0  0  0  0  0  0  0  0  0  0  0  0
   10.4158    2.5596   22.2386 C   0  0  0  0  0  0  0  0  0  0  0  0
   11.5540    3.5363   22.2624 C   0  0  0  0  0  0  0  0  0  0  0  0
   12.6922    4.5129   22.2863 N   0  0  0  0  0  0  0  0  0  0  0  0
  2  1  1  0  0  0
  2  3  1  0  0  0
  3  4  1  0  0  0
  4 19  1  0  0  0
 19 20  2  0  0  0
 20 21  1  0  0  0
 21 22  2  0  0  0
 22 23  1  0  0  0
 23 24  2  0  0  0
 24 25  1  0  0  0
 25 26  2  0  0  0
 26 27  1  0  0  0
 27 28  2  0  0  0
  4  5  1  0  0  0
  5  6  2  0  0  0
  5  7  1  0  0  0
  7  8  1  0  0  0
  8  9  1  0  0  0
  9 29  1  0  0  0
 29 30  1  0  0  0
 30 31  3  0  0  0
  9 10  1  0  0  0
 10 11  2  0  0  0
 10 12  1  0  0  0
 12 13  2  0  0  0
 13 14  1  0  0  0
 14 15  2  0  0  0
 15 16  1  0  0  0
 15 17  1  0  0  0
 17 18  2  0  0  0
  7  2  1  0  0  0
 18 12  1  0  0  0
 28 19  1  0  0  0
 18  7  1  0  0  0
 28 23  1  0  0  0
M  END
> <minimizedAffinity>
-7.38464

> <CNNscore>
0.4441869259

> <CNNaffinity>
6.3005266190

> <CNN_VS>
2.7986116409

> <CNNaffinity_variance>
0.3395031989

$$$$



 31 35  0  0  0  0  0  0  0  0999 V2000
    4.7532    2.7685   25.1681 C   0  0  0  0  0  0  0  0  0  0  0  0
    5.6371    2.4344   24.0031 C   0  0  0  0  0  0  0  0  0  0  0  0
    7.0883    2.4285   24.3824 C   0  0  0  0  0  0  0  0  0  0  0  0
    7.8858    2.0862   23.1590 N   0  0  0  0  0  0  0  0  0  0  0  0
    6.9274    1.8807   22.0235 C   0  0  0  0  0  0  0  0  0  0  0  0
    7.2944    1.5228   20.6138 O   0  0  0  0  0  0  0  0  0  0  0  0
    5.5376    2.0959   22.5452 C   0  0  0  0  0  0  0  0  0  0  0  0
    5.5948    1.7471   21.0875 C   0  0  0  0  0  0  0  0  0  0  0  0
    4.3280    1.6421   20.2911 N   0  0  0  0  0  0  0  0  0  0  0  0
    3.0040    1.8860   20.9524 C   0  0  0  0  0  0  0  0  0  0  0  0
    1.7372    1.7811   20.1560 O   0  0  0  0  0  0  0  0  0  0  0  0
    2.9467    2.2349   22.4102 C   0  0  0  0  0  0  0  0  0  0  0  0
    1.6227    2.4788   23.0716 C   0  0  0  0  0  0  0  0  0  0  0  0
    1.5655    2.8276   24.5293 C   0  0  0  0  0  0  0  0  0  0  0  0
    2.8323    2.9326   25.3257 C   0  0  0  0  0  0  0  0  0  0  0  0
    2.7750    3.2814   26.7834 F   0  0  0  0  0  0  0  0  0  0  0  0
    4.1563    2.6887   24.6643 C   0  0  0  0  0  0  0  0  0  0  0  0
    4.2135    2.3398   23.2066 C   0  0  0  0  0  0  0  0  0  0  0  0
    9.3794    1.9699   23.0841 C   0  0  0  0  0  0  0  0  0  0  0  0
   10.1806    3.0325   22.3922 C   0  0  0  0  0  0  0  0  0  0  0  0
   11.6742    2.9162   22.3173 N   0  0  0  0  0  0  0  0  0  0  0  0
   12.3665    1.7373   22.9343 C   0  0  0  0  0  0  0  0  0  0  0  0
   11.5652    0.6747   23.6263 C   0  0  0  0  0  0  0  0  0  0  0  0
   12.2576   -0.5043   24.2434 C   0  0  0  0  0  0  0  0  0  0  0  0
   11.4563   -1.5669   24.9353 C   0  0  0  0  0  0  0  0  0  0  0  0
    9.9628   -1.4505   25.0102 C   0  0  0  0  0  0  0  0  0  0  0  0
    9.2704   -0.2716   24.3931 C   0  0  0  0  0  0  0  0  0  0  0  0
   10.0716    0.7909   23.7012 C   0  0  0  0  0  0  0  0  0  0  0  0
    4.3853    1.2933   18.8333 C   0  0  0  0  0  0  0  0  0  0  0  0
    5.1634    0.0940   18.3791 C   0  0  0  0  0  0  0  0  0  0  0  0
    5.9415   -1.1052   17.9249 N   0  0  0  0  0  0  0  0  0  0  0  0
  2  1  1  0  0  0
  2  3  1  0  0  0
  3  4  1  0  0  0
  4 19  1  0  0  0
 19 20  2  0  0  0
 20 21  1  0  0  0
 21 22  2  0  0  0
 22 23  1  0  0  0
 23 24  2  0  0  0
 24 25  1  0  0  0
 25 26  2  0  0  0
 26 27  1  0  0  0
 27 28  2  0  0  0
  4  5  1  0  0  0
  5  6  2  0  0  0
  5  7  1  0  0  0
  7  8  1  0  0  0
  8  9  1  0  0  0
  9 29  1  0  0  0
 29 30  1  0  0  0
 30 31  3  0  0  0
  9 10  1  0  0  0
 10 11  2  0  0  0
 10 12  1  0  0  0
 12 13  2  0  0  0
 13 14  1  0  0  0
 14 15  2  0  0  0
 15 16  1  0  0  0
 15 17  1  0  0  0
 17 18  2  0  0  0
  7  2  1  0  0  0
 18 12  1  0  0  0
 28 19  1  0  0  0
 18  7  1  0  0  0
 28 23  1  0  0  0
M  END
> <minimizedAffinity>
-7.42260

> <CNNscore>
0.4404708445

> <CNNaffinity>
6.2476053238

> <CNN_VS>
2.7518880367

> <CNNaffinity_variance>
0.1443442255

$$$$



 31 35  0  0  0  0  0  0  0  0999 V2000
    6.2106   -2.7435   24.4654 C   0  0  0  0  0  0  0  0  0  0  0  0
    6.7801   -1.7772   23.4694 C   0  0  0  0  0  0  0  0  0  0  0  0
    5.8095   -1.4678   22.3684 C   0  0  0  0  0  0  0  0  0  0  0  0
    6.4666   -0.4999   21.4296 N   0  0  0  0  0  0  0  0  0  0  0  0
    7.8434   -0.2112   21.9504 C   0  0  0  0  0  0  0  0  0  0  0  0
    8.8497    0.7060   21.3209 O   0  0  0  0  0  0  0  0  0  0  0  0
    8.0371   -1.0006   23.2110 C   0  0  0  0  0  0  0  0  0  0  0  0
    9.2233   -0.1679   22.8243 C   0  0  0  0  0  0  0  0  0  0  0  0
   10.4574   -0.1788   23.6769 N   0  0  0  0  0  0  0  0  0  0  0  0
   10.5053   -1.0225   24.9162 C   0  0  0  0  0  0  0  0  0  0  0  0
   11.7394   -1.0334   25.7688 O   0  0  0  0  0  0  0  0  0  0  0  0
    9.3191   -1.8552   25.3030 C   0  0  0  0  0  0  0  0  0  0  0  0
    9.3671   -2.6989   26.5423 C   0  0  0  0  0  0  0  0  0  0  0  0
    8.1810   -3.5316   26.9290 C   0  0  0  0  0  0  0  0  0  0  0  0
    6.9469   -3.5207   26.0764 C   0  0  0  0  0  0  0  0  0  0  0  0
    5.7607   -4.3535   26.4632 F   0  0  0  0  0  0  0  0  0  0  0  0
    6.8989   -2.6770   24.8371 C   0  0  0  0  0  0  0  0  0  0  0  0
    8.0851   -1.8443   24.4504 C   0  0  0  0  0  0  0  0  0  0  0  0
    5.8545    0.0779   20.1880 C   0  0  0  0  0  0  0  0  0  0  0  0
    6.4786   -0.1885   18.8504 C   0  0  0  0  0  0  0  0  0  0  0  0
    5.8665    0.3893   17.6088 N   0  0  0  0  0  0  0  0  0  0  0  0
    4.6303    1.2334   17.7050 C   0  0  0  0  0  0  0  0  0  0  0  0
    4.0062    1.4997   19.0427 C   0  0  0  0  0  0  0  0  0  0  0  0
    2.7699    2.3439   19.1389 C   0  0  0  0  0  0  0  0  0  0  0  0
    2.1459    2.6102   20.4767 C   0  0  0  0  0  0  0  0  0  0  0  0
    2.7580    2.0324   21.7182 C   0  0  0  0  0  0  0  0  0  0  0  0
    3.9942    1.1883   21.6220 C   0  0  0  0  0  0  0  0  0  0  0  0
    4.6183    0.9220   20.2843 C   0  0  0  0  0  0  0  0  0  0  0  0
   11.6436    0.6540   23.2901 C   0  0  0  0  0  0  0  0  0  0  0  0
   11.5124    2.1448   23.1891 C   0  0  0  0  0  0  0  0  0  0  0  0
   11.3813    3.6356   23.0881 N   0  0  0  0  0  0  0  0  0  0  0  0
  2  1  1  0  0  0
  2  3  1  0  0  0
  3  4  1  0  0  0
  4 19  1  0  0  0
 19 20  2  0  0  0
 20 21  1  0  0  0
 21 22  2  0  0  0
 22 23  1  0  0  0
 23 24  2  0  0  0
 24 25  1  0  0  0
 25 26  2  0  0  0
 26 27  1  0  0  0
 27 28  2  0  0  0
  4  5  1  0  0  0
  5  6  2  0  0  0
  5  7  1  0  0  0
  7  8  1  0  0  0
  8  9  1  0  0  0
  9 29  1  0  0  0
 29 30  1  0  0  0
 30 31  3  0  0  0
  9 10  1  0  0  0
 10 11  2  0  0  0
 10 12  1  0  0  0
 12 13  2  0  0  0
 13 14  1  0  0  0
 14 15  2  0  0  0
 15 16  1  0  0  0
 15 17  1  0  0  0
 17 18  2  0  0  0
  7  2  1  0  0  0
 18 12  1  0  0  0
 28 19  1  0  0  0
 18  7  1  0  0  0
 28 23  1  0  0  0
M  END
> <minimizedAffinity>
-8.10622

> <CNNscore>
0.4374540448

> <CNNaffinity>
6.2162046432

> <CNN_VS>
2.7193038464

> <CNNaffinity_variance>
0.1078769416

$$$$



 31 35  0  0  0  0  0  0  0  0999 V2000
    6.2559   -5.0796   22.3954 C   0  0  0  0  0  0  0  0  0  0  0  0
    6.8253   -4.1436   23.4199 C   0  0  0  0  0  0  0  0  0  0  0  0
    8.0874   -3.4884   22.9425 C   0  0  0  0  0  0  0  0  0  0  0  0
    8.5765   -2.5776   24.0293 N   0  0  0  0  0  0  0  0  0  0  0  0
    7.6168   -2.6699   25.1784 C   0  0  0  0  0  0  0  0  0  0  0  0
    7.7211   -1.9252   26.4763 O   0  0  0  0  0  0  0  0  0  0  0  0
    6.5345   -3.6378   24.8018 C   0  0  0  0  0  0  0  0  0  0  0  0
    6.3741   -3.0456   26.1705 C   0  0  0  0  0  0  0  0  0  0  0  0
    5.2060   -3.4386   27.0256 N   0  0  0  0  0  0  0  0  0  0  0  0
    4.1984   -4.4239   26.5120 C   0  0  0  0  0  0  0  0  0  0  0  0
    3.0303   -4.8169   27.3671 O   0  0  0  0  0  0  0  0  0  0  0  0
    4.3588   -5.0162   25.1432 C   0  0  0  0  0  0  0  0  0  0  0  0
    3.3511   -6.0014   24.6295 C   0  0  0  0  0  0  0  0  0  0  0  0
    3.5115   -6.5937   23.2608 C   0  0  0  0  0  0  0  0  0  0  0  0
    4.6796   -6.2006   22.4057 C   0  0  0  0  0  0  0  0  0  0  0  0
    4.8400   -6.7929   21.0369 F   0  0  0  0  0  0  0  0  0  0  0  0
    5.6872   -5.2154   22.9194 C   0  0  0  0  0  0  0  0  0  0  0  0
    5.5268   -4.6231   24.2881 C   0  0  0  0  0  0  0  0  0  0  0  0
    9.8090   -1.7243   23.9764 C   0  0  0  0  0  0  0  0  0  0  0  0
    9.8416   -0.5073   23.1001 C   0  0  0  0  0  0  0  0  0  0  0  0
   11.0741    0.3460   23.0472 N   0  0  0  0  0  0  0  0  0  0  0  0
   12.2740   -0.0177   23.8706 C   0  0  0  0  0  0  0  0  0  0  0  0
   12.2414   -1.2347   24.7469 C   0  0  0  0  0  0  0  0  0  0  0  0
   13.4414   -1.5984   25.5702 C   0  0  0  0  0  0  0  0  0  0  0  0
   13.4087   -2.8154   26.4465 C   0  0  0  0  0  0  0  0  0  0  0  0
   12.1763   -3.6686   26.4994 C   0  0  0  0  0  0  0  0  0  0  0  0
   10.9764   -3.3049   25.6760 C   0  0  0  0  0  0  0  0  0  0  0  0
   11.0089   -2.0880   24.7998 C   0  0  0  0  0  0  0  0  0  0  0  0
    5.0456   -2.8463   28.3944 C   0  0  0  0  0  0  0  0  0  0  0  0
    5.0627   -1.3572   28.5740 C   0  0  0  0  0  0  0  0  0  0  0  0
    5.0798    0.1319   28.7536 N   0  0  0  0  0  0  0  0  0  0  0  0
  2  1  1  0  0  0
  2  3  1  0  0  0
  3  4  1  0  0  0
  4 19  1  0  0  0
 19 20  2  0  0  0
 20 21  1  0  0  0
 21 22  2  0  0  0
 22 23  1  0  0  0
 23 24  2  0  0  0
 24 25  1  0  0  0
 25 26  2  0  0  0
 26 27  1  0  0  0
 27 28  2  0  0  0
  4  5  1  0  0  0
  5  6  2  0  0  0
  5  7  1  0  0  0
  7  8  1  0  0  0
  8  9  1  0  0  0
  9 29  1  0  0  0
 29 30  1  0  0  0
 30 31  3  0  0  0
  9 10  1  0  0  0
 10 11  2  0  0  0
 10 12  1  0  0  0
 12 13  2  0  0  0
 13 14  1  0  0  0
 14 15  2  0  0  0
 15 16  1  0  0  0
 15 17  1  0  0  0
 17 18  2  0  0  0
  7  2  1  0  0  0
 18 12  1  0  0  0
 28 19  1  0  0  0
 18  7  1  0  0  0
 28 23  1  0  0  0
M  END
> <minimizedAffinity>
-7.35866

> <CNNscore>
0.4314981997

> <CNNaffinity>
6.2969884872

> <CNN_VS>
2.7171392441

> <CNNaffinity_variance>
0.1477971375

$$$$



 31 35  0  0  0  0  0  0  0  0999 V2000
   10.0914   -1.7683   24.6145 C   0  0  0  0  0  0  0  0  0  0  0  0
    9.6433   -0.6441   23.7282 C   0  0  0  0  0  0  0  0  0  0  0  0
   10.5480    0.5479   23.8318 C   0  0  0  0  0  0  0  0  0  0  0  0
   10.0203    1.6114   22.9150 N   0  0  0  0  0  0  0  0  0  0  0  0
    8.7895    1.0766   22.2448 C   0  0  0  0  0  0  0  0  0  0  0  0
    7.9407    1.8075   21.2471 O   0  0  0  0  0  0  0  0  0  0  0  0
    8.5565   -0.3173   22.7474 C   0  0  0  0  0  0  0  0  0  0  0  0
    7.5381    0.1497   21.7500 C   0  0  0  0  0  0  0  0  0  0  0  0
    6.4154   -0.7581   21.3432 N   0  0  0  0  0  0  0  0  0  0  0  0
    6.3111   -2.1330   21.9338 C   0  0  0  0  0  0  0  0  0  0  0  0
    5.1884   -3.0408   21.5270 O   0  0  0  0  0  0  0  0  0  0  0  0
    7.3295   -2.6001   22.9313 C   0  0  0  0  0  0  0  0  0  0  0  0
    7.2251   -3.9749   23.5219 C   0  0  0  0  0  0  0  0  0  0  0  0
    8.2434   -4.4420   24.5192 C   0  0  0  0  0  0  0  0  0  0  0  0
    9.3661   -3.5342   24.9260 C   0  0  0  0  0  0  0  0  0  0  0  0
   10.3845   -4.0013   25.9235 F   0  0  0  0  0  0  0  0  0  0  0  0
    9.4705   -2.1593   24.3354 C   0  0  0  0  0  0  0  0  0  0  0  0
    8.4521   -1.6923   23.3381 C   0  0  0  0  0  0  0  0  0  0  0  0
   10.6183    2.9709   22.7052 C   0  0  0  0  0  0  0  0  0  0  0  0
   12.0386    3.1019   22.2410 C   0  0  0  0  0  0  0  0  0  0  0  0
   12.6366    4.4614   22.0312 N   0  0  0  0  0  0  0  0  0  0  0  0
   11.8143    5.6899   22.2855 C   0  0  0  0  0  0  0  0  0  0  0  0
   10.3940    5.5588   22.7497 C   0  0  0  0  0  0  0  0  0  0  0  0
    9.5717    6.7874   23.0040 C   0  0  0  0  0  0  0  0  0  0  0  0
    8.1513    6.6562   23.4682 C   0  0  0  0  0  0  0  0  0  0  0  0
    7.5534    5.2967   23.6780 C   0  0  0  0  0  0  0  0  0  0  0  0
    8.3757    4.0683   23.4236 C   0  0  0  0  0  0  0  0  0  0  0  0
    9.7959    4.1993   22.9595 C   0  0  0  0  0  0  0  0  0  0  0  0
    5.3971   -0.2910   20.3458 C   0  0  0  0  0  0  0  0  0  0  0  0
    5.8367    0.1946   18.9964 C   0  0  0  0  0  0  0  0  0  0  0  0
    6.2764    0.6802   17.6470 N   0  0  0  0  0  0  0  0  0  0  0  0
  2  1  1  0  0  0
  2  3  1  0  0  0
  3  4  1  0  0  0
  4 19  1  0  0  0
 19 20  2  0  0  0
 20 21  1  0  0  0
 21 22  2  0  0  0
 22 23  1  0  0  0
 23 24  2  0  0  0
 24 25  1  0  0  0
 25 26  2  0  0  0
 26 27  1  0  0  0
 27 28  2  0  0  0
  4  5  1  0  0  0
  5  6  2  0  0  0
  5  7  1  0  0  0
  7  8  1  0  0  0
  8  9  1  0  0  0
  9 29  1  0  0  0
 29 30  1  0  0  0
 30 31  3  0  0  0
  9 10  1  0  0  0
 10 11  2  0  0  0
 10 12  1  0  0  0
 12 13  2  0  0  0
 13 14  1  0  0  0
 14 15  2  0  0  0
 15 16  1  0  0  0
 15 17  1  0  0  0
 17 18  2  0  0  0
  7  2  1  0  0  0
 18 12  1  0  0  0
 28 19  1  0  0  0
 18  7  1  0  0  0
 28 23  1  0  0  0
M  END
> <minimizedAffinity>
-8.26775

> <CNNscore>
0.3656670749

> <CNNaffinity>
6.3297843933

> <CNN_VS>
2.3145937920

> <CNNaffinity_variance>
0.1071592793

$$$$
