


 31 35  0  0  0  0  0  0  0  0999 V2000
   -9.4577   -2.5649  -23.7602 C   0  0  0  0  0  0  0  0  0  0  0  0
   -8.2305   -2.7791  -22.9247 C   0  0  0  0  0  0  0  0  0  0  0  0
   -7.9779   -1.6313  -21.9926 C   0  0  0  0  0  0  0  0  0  0  0  0
   -6.7381   -1.9374  -21.2058 N   0  0  0  0  0  0  0  0  0  0  0  0
   -6.2244   -3.2744  -21.6516 C   0  0  0  0  0  0  0  0  0  0  0  0
   -5.0029   -3.9691  -21.1271 O   0  0  0  0  0  0  0  0  0  0  0  0
   -7.1468   -3.7946  -22.7139 C   0  0  0  0  0  0  0  0  0  0  0  0
   -6.0045   -4.7128  -22.3947 C   0  0  0  0  0  0  0  0  0  0  0  0
   -5.8672   -6.0191  -23.1191 N   0  0  0  0  0  0  0  0  0  0  0  0
   -6.8723   -6.4072  -24.1627 C   0  0  0  0  0  0  0  0  0  0  0  0
   -6.7350   -7.7135  -24.8872 O   0  0  0  0  0  0  0  0  0  0  0  0
   -8.0147   -5.4890  -24.4820 C   0  0  0  0  0  0  0  0  0  0  0  0
   -9.0197   -5.8770  -25.5256 C   0  0  0  0  0  0  0  0  0  0  0  0
  -10.1620   -4.9588  -25.8449 C   0  0  0  0  0  0  0  0  0  0  0  0
  -10.2993   -3.6525  -25.1205 C   0  0  0  0  0  0  0  0  0  0  0  0
  -11.4417   -2.7343  -25.4397 F   0  0  0  0  0  0  0  0  0  0  0  0
   -9.2942   -3.2644  -24.0768 C   0  0  0  0  0  0  0  0  0  0  0  0
   -8.1519   -4.1827  -23.7576 C   0  0  0  0  0  0  0  0  0  0  0  0
   -6.1203   -1.0606  -20.1572 C   0  0  0  0  0  0  0  0  0  0  0  0
   -6.6776   -1.0502  -18.7647 C   0  0  0  0  0  0  0  0  0  0  0  0
   -6.0599   -0.1733  -17.7161 N   0  0  0  0  0  0  0  0  0  0  0  0
   -4.8848    0.6932  -18.0602 C   0  0  0  0  0  0  0  0  0  0  0  0
   -4.3275    0.6828  -19.4528 C   0  0  0  0  0  0  0  0  0  0  0  0
   -3.1524    1.5494  -19.7968 C   0  0  0  0  0  0  0  0  0  0  0  0
   -2.5951    1.5389  -21.1894 C   0  0  0  0  0  0  0  0  0  0  0  0
   -3.2129    0.6621  -22.2379 C   0  0  0  0  0  0  0  0  0  0  0  0
   -4.3880   -0.2044  -21.8939 C   0  0  0  0  0  0  0  0  0  0  0  0
   -4.9452   -0.1941  -20.5013 C   0  0  0  0  0  0  0  0  0  0  0  0
   -4.7248   -6.9374  -22.7999 C   0  0  0  0  0  0  0  0  0  0  0  0
   -3.4638   -6.8753  -23.6097 C   0  0  0  0  0  0  0  0  0  0  0  0
   -2.2028   -6.8132  -24.4196 N   0  0  0  0  0  0  0  0  0  0  0  0
  2  1  1  0  0  0
  2  3  1  0  0  0
  3  4  1  0  0  0
  4 19  1  0  0  0
 19 20  2  0  0  0
 20 21  1  0  0  0
 21 22  2  0  0  0
 22 23  1  0  0  0
 23 24  2  0  0  0
 24 25  1  0  0  0
 25 26  2  0  0  0
 26 27  1  0  0  0
 27 28  2  0  0  0
  4  5  1  0  0  0
  5  6  2  0  0  0
  5  7  1  0  0  0
  7  8  1  0  0  0
  8  9  1  0  0  0
  9 29  1  0  0  0
 29 30  1  0  0  0
 30 31  3  0  0  0
  9 10  1  0  0  0
 10 11  2  0  0  0
 10 12  1  0  0  0
 12 13  2  0  0  0
 13 14  1  0  0  0
 14 15  2  0  0  0
 15 16  1  0  0  0
 15 17  1  0  0  0
 17 18  2  0  0  0
  7  2  1  0  0  0
 18 12  1  0  0  0
 28 19  1  0  0  0
 18  7  1  0  0  0
 28 23  1  0  0  0
M  END
> <minimizedAffinity>
-7.71210

> <CNNscore>
0.6876915693

> <CNNaffinity>
6.3113794327

> <CNN_VS>
4.3402824402

> <CNNaffinity_variance>
0.1222437397

$$$$



 31 35  0  0  0  0  0  0  0  0999 V2000
   -5.7410   -5.4285  -23.4266 C   0  0  0  0  0  0  0  0  0  0  0  0
   -6.4105   -4.2475  -22.7884 C   0  0  0  0  0  0  0  0  0  0  0  0
   -5.5248   -3.5761  -21.7810 C   0  0  0  0  0  0  0  0  0  0  0  0
   -6.2780   -2.4152  -21.2023 N   0  0  0  0  0  0  0  0  0  0  0  0
   -7.6292   -2.3692  -21.8520 C   0  0  0  0  0  0  0  0  0  0  0  0
   -8.7090   -1.3667  -21.5707 O   0  0  0  0  0  0  0  0  0  0  0  0
   -7.7111   -3.5015  -22.8323 C   0  0  0  0  0  0  0  0  0  0  0  0
   -8.9514   -2.6606  -22.7667 C   0  0  0  0  0  0  0  0  0  0  0  0
  -10.1274   -2.9893  -23.6379 N   0  0  0  0  0  0  0  0  0  0  0  0
  -10.0631   -4.1590  -24.5747 C   0  0  0  0  0  0  0  0  0  0  0  0
  -11.2391   -4.4877  -25.4458 O   0  0  0  0  0  0  0  0  0  0  0  0
   -8.8227   -5.0000  -24.6403 C   0  0  0  0  0  0  0  0  0  0  0  0
   -8.7584   -6.1697  -25.5771 C   0  0  0  0  0  0  0  0  0  0  0  0
   -7.5181   -7.0107  -25.6427 C   0  0  0  0  0  0  0  0  0  0  0  0
   -6.3421   -6.6820  -24.7716 C   0  0  0  0  0  0  0  0  0  0  0  0
   -5.1018   -7.5230  -24.8372 F   0  0  0  0  0  0  0  0  0  0  0  0
   -6.4064   -5.5123  -23.8348 C   0  0  0  0  0  0  0  0  0  0  0  0
   -7.6467   -4.6713  -23.7691 C   0  0  0  0  0  0  0  0  0  0  0  0
   -5.7694   -1.4669  -20.1573 C   0  0  0  0  0  0  0  0  0  0  0  0
   -6.2005   -1.6231  -18.7292 C   0  0  0  0  0  0  0  0  0  0  0  0
   -5.6919   -0.6748  -17.6842 N   0  0  0  0  0  0  0  0  0  0  0  0
   -4.7521    0.4297  -18.0674 C   0  0  0  0  0  0  0  0  0  0  0  0
   -4.3210    0.5859  -19.4956 C   0  0  0  0  0  0  0  0  0  0  0  0
   -3.3811    1.6904  -19.8788 C   0  0  0  0  0  0  0  0  0  0  0  0
   -2.9500    1.8465  -21.3070 C   0  0  0  0  0  0  0  0  0  0  0  0
   -3.4587    0.8982  -22.3519 C   0  0  0  0  0  0  0  0  0  0  0  0
   -4.3984   -0.2063  -21.9687 C   0  0  0  0  0  0  0  0  0  0  0  0
   -4.8296   -0.3624  -20.5406 C   0  0  0  0  0  0  0  0  0  0  0  0
  -11.3678   -2.1483  -23.5722 C   0  0  0  0  0  0  0  0  0  0  0  0
  -12.4703   -2.5108  -22.6220 C   0  0  0  0  0  0  0  0  0  0  0  0
  -13.5728   -2.8733  -21.6718 N   0  0  0  0  0  0  0  0  0  0  0  0
  2  1  1  0  0  0
  2  3  1  0  0  0
  3  4  1  0  0  0
  4 19  1  0  0  0
 19 20  2  0  0  0
 20 21  1  0  0  0
 21 22  2  0  0  0
 22 23  1  0  0  0
 23 24  2  0  0  0
 24 25  1  0  0  0
 25 26  2  0  0  0
 26 27  1  0  0  0
 27 28  2  0  0  0
  4  5  1  0  0  0
  5  6  2  0  0  0
  5  7  1  0  0  0
  7  8  1  0  0  0
  8  9  1  0  0  0
  9 29  1  0  0  0
 29 30  1  0  0  0
 30 31  3  0  0  0
  9 10  1  0  0  0
 10 11  2  0  0  0
 10 12  1  0  0  0
 12 13  2  0  0  0
 13 14  1  0  0  0
 14 15  2  0  0  0
 15 16  1  0  0  0
 15 17  1  0  0  0
 17 18  2  0  0  0
  7  2  1  0  0  0
 18 12  1  0  0  0
 28 19  1  0  0  0
 18  7  1  0  0  0
 28 23  1  0  0  0
M  END
> <minimizedAffinity>
-8.48046

> <CNNscore>
0.6326750517

> <CNNaffinity>
6.3266611099

> <CNN_VS>
4.0027208328

> <CNNaffinity_variance>
0.1178713441

$$$$



 31 35  0  0  0  0  0  0  0  0999 V2000
   -5.6403    3.0283  -24.8831 C   0  0  0  0  0  0  0  0  0  0  0  0
   -6.5402    2.3074  -23.9236 C   0  0  0  0  0  0  0  0  0  0  0  0
   -7.9699    2.3192  -24.3772 C   0  0  0  0  0  0  0  0  0  0  0  0
   -8.7853    1.5788  -23.3589 N   0  0  0  0  0  0  0  0  0  0  0  0
   -7.8596    1.1095  -22.2760 C   0  0  0  0  0  0  0  0  0  0  0  0
   -8.2525    0.3272  -21.0579 O   0  0  0  0  0  0  0  0  0  0  0  0
   -6.4720    1.5598  -22.6250 C   0  0  0  0  0  0  0  0  0  0  0  0
   -6.5590    0.7922  -21.3392 C   0  0  0  0  0  0  0  0  0  0  0  0
   -5.3206    0.5392  -20.5314 N   0  0  0  0  0  0  0  0  0  0  0  0
   -3.9953    1.0539  -21.0094 C   0  0  0  0  0  0  0  0  0  0  0  0
   -2.7569    0.8010  -20.2016 O   0  0  0  0  0  0  0  0  0  0  0  0
   -3.9082    1.8216  -22.2952 C   0  0  0  0  0  0  0  0  0  0  0  0
   -2.5828    2.3363  -22.7731 C   0  0  0  0  0  0  0  0  0  0  0  0
   -2.4958    3.1039  -24.0588 C   0  0  0  0  0  0  0  0  0  0  0  0
   -3.7342    3.3568  -24.8666 C   0  0  0  0  0  0  0  0  0  0  0  0
   -3.6471    4.1245  -26.1524 F   0  0  0  0  0  0  0  0  0  0  0  0
   -5.0595    2.8421  -24.3887 C   0  0  0  0  0  0  0  0  0  0  0  0
   -5.1465    2.0745  -23.1030 C   0  0  0  0  0  0  0  0  0  0  0  0
  -10.2665    1.3483  -23.4139 C   0  0  0  0  0  0  0  0  0  0  0  0
  -11.1981    2.5044  -23.6268 C   0  0  0  0  0  0  0  0  0  0  0  0
  -12.6792    2.2738  -23.6817 N   0  0  0  0  0  0  0  0  0  0  0  0
  -13.2287    0.8871  -23.5238 C   0  0  0  0  0  0  0  0  0  0  0  0
  -12.2971   -0.2691  -23.3109 C   0  0  0  0  0  0  0  0  0  0  0  0
  -12.8466   -1.6559  -23.1529 C   0  0  0  0  0  0  0  0  0  0  0  0
  -11.9149   -2.8120  -22.9401 C   0  0  0  0  0  0  0  0  0  0  0  0
  -10.4338   -2.5814  -22.8851 C   0  0  0  0  0  0  0  0  0  0  0  0
   -9.8843   -1.1947  -23.0430 C   0  0  0  0  0  0  0  0  0  0  0  0
  -10.8159   -0.0386  -23.2559 C   0  0  0  0  0  0  0  0  0  0  0  0
   -5.4077   -0.2284  -19.2456 C   0  0  0  0  0  0  0  0  0  0  0  0
   -5.3108   -1.7252  -19.2577 C   0  0  0  0  0  0  0  0  0  0  0  0
   -5.2139   -3.2220  -19.2698 N   0  0  0  0  0  0  0  0  0  0  0  0
  2  1  1  0  0  0
  2  3  1  0  0  0
  3  4  1  0  0  0
  4 19  1  0  0  0
 19 20  2  0  0  0
 20 21  1  0  0  0
 21 22  2  0  0  0
 22 23  1  0  0  0
 23 24  2  0  0  0
 24 25  1  0  0  0
 25 26  2  0  0  0
 26 27  1  0  0  0
 27 28  2  0  0  0
  4  5  1  0  0  0
  5  6  2  0  0  0
  5  7  1  0  0  0
  7  8  1  0  0  0
  8  9  1  0  0  0
  9 29  1  0  0  0
 29 30  1  0  0  0
 30 31  3  0  0  0
  9 10  1  0  0  0
 10 11  2  0  0  0
 10 12  1  0  0  0
 12 13  2  0  0  0
 13 14  1  0  0  0
 14 15  2  0  0  0
 15 16  1  0  0  0
 15 17  1  0  0  0
 17 18  2  0  0  0
  7  2  1  0  0  0
 18 12  1  0  0  0
 28 19  1  0  0  0
 18  7  1  0  0  0
 28 23  1  0  0  0
M  END
> <minimizedAffinity>
-7.42355

> <CNNscore>
0.5217980742

> <CNNaffinity>
6.0266785622

> <CNN_VS>
3.1447093487

> <CNNaffinity_variance>
0.0863368735

$$$$



 31 35  0  0  0  0  0  0  0  0999 V2000
   -5.4187   -0.7515  -25.9279 C   0  0  0  0  0  0  0  0  0  0  0  0
   -6.2312   -0.5843  -24.6781 C   0  0  0  0  0  0  0  0  0  0  0  0
   -7.6779   -0.9125  -24.9004 C   0  0  0  0  0  0  0  0  0  0  0  0
   -8.4025   -0.7164  -23.6018 N   0  0  0  0  0  0  0  0  0  0  0  0
   -7.4037   -0.2670  -22.5769 C   0  0  0  0  0  0  0  0  0  0  0  0
   -7.6955    0.0459  -21.1392 O   0  0  0  0  0  0  0  0  0  0  0  0
   -6.0617   -0.1854  -23.2421 C   0  0  0  0  0  0  0  0  0  0  0  0
   -6.0464    0.1889  -21.7896 C   0  0  0  0  0  0  0  0  0  0  0  0
   -4.7607    0.5976  -21.1340 N   0  0  0  0  0  0  0  0  0  0  0  0
   -3.4903    0.6322  -21.9307 C   0  0  0  0  0  0  0  0  0  0  0  0
   -2.2046    1.0409  -21.2751 O   0  0  0  0  0  0  0  0  0  0  0  0
   -3.5056    0.2579  -23.3833 C   0  0  0  0  0  0  0  0  0  0  0  0
   -2.2352    0.2924  -24.1801 C   0  0  0  0  0  0  0  0  0  0  0  0
   -2.2505   -0.0818  -25.6325 C   0  0  0  0  0  0  0  0  0  0  0  0
   -3.5362   -0.4906  -26.2882 C   0  0  0  0  0  0  0  0  0  0  0  0
   -3.5515   -0.8648  -27.7407 F   0  0  0  0  0  0  0  0  0  0  0  0
   -4.8066   -0.5251  -25.4914 C   0  0  0  0  0  0  0  0  0  0  0  0
   -4.7913   -0.1509  -24.0390 C   0  0  0  0  0  0  0  0  0  0  0  0
   -9.8686   -0.9318  -23.3689 C   0  0  0  0  0  0  0  0  0  0  0  0
  -10.3773   -2.2940  -23.0010 C   0  0  0  0  0  0  0  0  0  0  0  0
  -11.8434   -2.5094  -22.7681 N   0  0  0  0  0  0  0  0  0  0  0  0
  -12.8007   -1.3625  -22.9031 C   0  0  0  0  0  0  0  0  0  0  0  0
  -12.2919   -0.0002  -23.2711 C   0  0  0  0  0  0  0  0  0  0  0  0
  -13.2492    1.1467  -23.4061 C   0  0  0  0  0  0  0  0  0  0  0  0
  -12.7404    2.5090  -23.7741 C   0  0  0  0  0  0  0  0  0  0  0  0
  -11.2744    2.7243  -24.0069 C   0  0  0  0  0  0  0  0  0  0  0  0
  -10.3171    1.5774  -23.8719 C   0  0  0  0  0  0  0  0  0  0  0  0
  -10.8258    0.2152  -23.5040 C   0  0  0  0  0  0  0  0  0  0  0  0
   -4.7454    0.9719  -19.6814 C   0  0  0  0  0  0  0  0  0  0  0  0
   -5.1135   -0.0442  -18.6412 C   0  0  0  0  0  0  0  0  0  0  0  0
   -5.4816   -1.0603  -17.6011 N   0  0  0  0  0  0  0  0  0  0  0  0
  2  1  1  0  0  0
  2  3  1  0  0  0
  3  4  1  0  0  0
  4 19  1  0  0  0
 19 20  2  0  0  0
 20 21  1  0  0  0
 21 22  2  0  0  0
 22 23  1  0  0  0
 23 24  2  0  0  0
 24 25  1  0  0  0
 25 26  2  0  0  0
 26 27  1  0  0  0
 27 28  2  0  0  0
  4  5  1  0  0  0
  5  6  2  0  0  0
  5  7  1  0  0  0
  7  8  1  0  0  0
  8  9  1  0  0  0
  9 29  1  0  0  0
 29 30  1  0  0  0
 30 31  3  0  0  0
  9 10  1  0  0  0
 10 11  2  0  0  0
 10 12  1  0  0  0
 12 13  2  0  0  0
 13 14  1  0  0  0
 14 15  2  0  0  0
 15 16  1  0  0  0
 15 17  1  0  0  0
 17 18  2  0  0  0
  7  2  1  0  0  0
 18 12  1  0  0  0
 28 19  1  0  0  0
 18  7  1  0  0  0
 28 23  1  0  0  0
M  END
> <minimizedAffinity>
-7.59668

> <CNNscore>
0.4468297660

> <CNNaffinity>
6.0140271187

> <CNN_VS>
2.6872463226

> <CNNaffinity_variance>
0.0176356826

$$$$



 31 35  0  0  0  0  0  0  0  0999 V2000
   -7.4092   -1.2464  -25.6394 C   0  0  0  0  0  0  0  0  0  0  0  0
   -6.9723   -1.8592  -24.3418 C   0  0  0  0  0  0  0  0  0  0  0  0
   -6.6645   -0.8198  -23.3051 C   0  0  0  0  0  0  0  0  0  0  0  0
   -6.2394   -1.5265  -22.0521 N   0  0  0  0  0  0  0  0  0  0  0  0
   -6.2846   -3.0027  -22.3146 C   0  0  0  0  0  0  0  0  0  0  0  0
   -5.9376   -4.0835  -21.3340 O   0  0  0  0  0  0  0  0  0  0  0  0
   -6.7375   -3.2083  -23.7297 C   0  0  0  0  0  0  0  0  0  0  0  0
   -6.4622   -4.4816  -22.9862 C   0  0  0  0  0  0  0  0  0  0  0  0
   -6.6477   -5.8041  -23.6692 N   0  0  0  0  0  0  0  0  0  0  0  0
   -7.1086   -5.8533  -25.0958 C   0  0  0  0  0  0  0  0  0  0  0  0
   -7.2941   -7.1758  -25.7788 O   0  0  0  0  0  0  0  0  0  0  0  0
   -7.3839   -4.5800  -25.8394 C   0  0  0  0  0  0  0  0  0  0  0  0
   -7.8448   -4.6292  -27.2660 C   0  0  0  0  0  0  0  0  0  0  0  0
   -8.1201   -3.3559  -28.0095 C   0  0  0  0  0  0  0  0  0  0  0  0
   -7.9345   -2.0334  -27.3264 C   0  0  0  0  0  0  0  0  0  0  0  0
   -8.2099   -0.7601  -28.0701 F   0  0  0  0  0  0  0  0  0  0  0  0
   -7.4737   -1.9842  -25.8999 C   0  0  0  0  0  0  0  0  0  0  0  0
   -7.1984   -3.2575  -25.1563 C   0  0  0  0  0  0  0  0  0  0  0  0
   -5.8395   -0.8720  -20.7631 C   0  0  0  0  0  0  0  0  0  0  0  0
   -6.6411   -1.1143  -19.5187 C   0  0  0  0  0  0  0  0  0  0  0  0
   -6.2411   -0.4598  -18.2296 N   0  0  0  0  0  0  0  0  0  0  0  0
   -5.0396    0.4370  -18.1850 C   0  0  0  0  0  0  0  0  0  0  0  0
   -4.2379    0.6793  -19.4295 C   0  0  0  0  0  0  0  0  0  0  0  0
   -3.0363    1.5761  -19.3849 C   0  0  0  0  0  0  0  0  0  0  0  0
   -2.2347    1.8183  -20.6295 C   0  0  0  0  0  0  0  0  0  0  0  0
   -2.6347    1.1638  -21.9184 C   0  0  0  0  0  0  0  0  0  0  0  0
   -3.8363    0.2670  -21.9630 C   0  0  0  0  0  0  0  0  0  0  0  0
   -4.6379    0.0248  -20.7186 C   0  0  0  0  0  0  0  0  0  0  0  0
   -6.3724   -7.0774  -22.9256 C   0  0  0  0  0  0  0  0  0  0  0  0
   -5.8570   -7.0274  -21.5178 C   0  0  0  0  0  0  0  0  0  0  0  0
   -5.3417   -6.9774  -20.1100 N   0  0  0  0  0  0  0  0  0  0  0  0
  2  1  1  0  0  0
  2  3  1  0  0  0
  3  4  1  0  0  0
  4 19  1  0  0  0
 19 20  2  0  0  0
 20 21  1  0  0  0
 21 22  2  0  0  0
 22 23  1  0  0  0
 23 24  2  0  0  0
 24 25  1  0  0  0
 25 26  2  0  0  0
 26 27  1  0  0  0
 27 28  2  0  0  0
  4  5  1  0  0  0
  5  6  2  0  0  0
  5  7  1  0  0  0
  7  8  1  0  0  0
  8  9  1  0  0  0
  9 29  1  0  0  0
 29 30  1  0  0  0
 30 31  3  0  0  0
  9 10  1  0  0  0
 10 11  2  0  0  0
 10 12  1  0  0  0
 12 13  2  0  0  0
 13 14  1  0  0  0
 14 15  2  0  0  0
 15 16  1  0  0  0
 15 17  1  0  0  0
 17 18  2  0  0  0
  7  2  1  0  0  0
 18 12  1  0  0  0
 28 19  1  0  0  0
 18  7  1  0  0  0
 28 23  1  0  0  0
M  END
> <minimizedAffinity>
-6.92877

> <CNNscore>
0.4464248419

> <CNNaffinity>
6.0207076073

> <CNN_VS>
2.6877934933

> <CNNaffinity_variance>
0.0810640529

$$$$



 31 35  0  0  0  0  0  0  0  0999 V2000
   -7.2394   -0.2563  -21.0795 C   0  0  0  0  0  0  0  0  0  0  0  0
   -8.4235   -0.3125  -21.9986 C   0  0  0  0  0  0  0  0  0  0  0  0
   -9.1808    0.9822  -22.0190 C   0  0  0  0  0  0  0  0  0  0  0  0
  -10.3384    0.8272  -22.9603 N   0  0  0  0  0  0  0  0  0  0  0  0
  -10.2965   -0.5632  -23.5216 C   0  0  0  0  0  0  0  0  0  0  0  0
  -11.2677   -1.1467  -24.5046 O   0  0  0  0  0  0  0  0  0  0  0  0
   -9.1131   -1.2676  -22.9272 C   0  0  0  0  0  0  0  0  0  0  0  0
   -9.9055   -2.1075  -23.8845 C   0  0  0  0  0  0  0  0  0  0  0  0
   -9.4853   -3.5191  -24.1689 N   0  0  0  0  0  0  0  0  0  0  0  0
   -8.2727   -4.0907  -23.4960 C   0  0  0  0  0  0  0  0  0  0  0  0
   -7.8526   -5.5023  -23.7803 O   0  0  0  0  0  0  0  0  0  0  0  0
   -7.4802   -3.2507  -22.5386 C   0  0  0  0  0  0  0  0  0  0  0  0
   -6.2677   -3.8224  -21.8657 C   0  0  0  0  0  0  0  0  0  0  0  0
   -5.4753   -2.9824  -20.9083 C   0  0  0  0  0  0  0  0  0  0  0  0
   -5.8954   -1.5708  -20.6240 C   0  0  0  0  0  0  0  0  0  0  0  0
   -5.1030   -0.7308  -19.6666 F   0  0  0  0  0  0  0  0  0  0  0  0
   -7.1080   -0.9992  -21.2969 C   0  0  0  0  0  0  0  0  0  0  0  0
   -7.9004   -1.8392  -22.2542 C   0  0  0  0  0  0  0  0  0  0  0  0
  -11.3588    1.8781  -23.2835 C   0  0  0  0  0  0  0  0  0  0  0  0
  -12.6478    1.9324  -22.5184 C   0  0  0  0  0  0  0  0  0  0  0  0
  -13.6681    2.9833  -22.8416 N   0  0  0  0  0  0  0  0  0  0  0  0
  -13.3994    3.9799  -23.9300 C   0  0  0  0  0  0  0  0  0  0  0  0
  -12.1103    3.9256  -24.6951 C   0  0  0  0  0  0  0  0  0  0  0  0
  -11.8416    4.9223  -25.7835 C   0  0  0  0  0  0  0  0  0  0  0  0
  -10.5525    4.8680  -26.5485 C   0  0  0  0  0  0  0  0  0  0  0  0
   -9.5323    3.8171  -26.2253 C   0  0  0  0  0  0  0  0  0  0  0  0
   -9.8010    2.8205  -25.1369 C   0  0  0  0  0  0  0  0  0  0  0  0
  -11.0900    2.8747  -24.3719 C   0  0  0  0  0  0  0  0  0  0  0  0
  -10.2778   -4.3591  -25.1263 C   0  0  0  0  0  0  0  0  0  0  0  0
   -9.7820   -4.5709  -26.5260 C   0  0  0  0  0  0  0  0  0  0  0  0
   -9.2862   -4.7826  -27.9257 N   0  0  0  0  0  0  0  0  0  0  0  0
  2  1  1  0  0  0
  2  3  1  0  0  0
  3  4  1  0  0  0
  4 19  1  0  0  0
 19 20  2  0  0  0
 20 21  1  0  0  0
 21 22  2  0  0  0
 22 23  1  0  0  0
 23 24  2  0  0  0
 24 25  1  0  0  0
 25 26  2  0  0  0
 26 27  1  0  0  0
 27 28  2  0  0  0
  4  5  1  0  0  0
  5  6  2  0  0  0
  5  7  1  0  0  0
  7  8  1  0  0  0
  8  9  1  0  0  0
  9 29  1  0  0  0
 29 30  1  0  0  0
 30 31  3  0  0  0
  9 10  1  0  0  0
 10 11  2  0  0  0
 10 12  1  0  0  0
 12 13  2  0  0  0
 13 14  1  0  0  0
 14 15  2  0  0  0
 15 16  1  0  0  0
 15 17  1  0  0  0
 17 18  2  0  0  0
  7  2  1  0  0  0
 18 12  1  0  0  0
 28 19  1  0  0  0
 18  7  1  0  0  0
 28 23  1  0  0  0
M  END
> <minimizedAffinity>
-8.13161

> <CNNscore>
0.3369781673

> <CNNaffinity>
6.0024294853

> <CNN_VS>
2.0226876736

> <CNNaffinity_variance>
0.1048935801

$$$$



 31 35  0  0  0  0  0  0  0  0999 V2000
   -5.7268    2.9543  -24.7877 C   0  0  0  0  0  0  0  0  0  0  0  0
   -6.6332    2.1848  -23.8732 C   0  0  0  0  0  0  0  0  0  0  0  0
   -8.0438    2.1466  -24.3819 C   0  0  0  0  0  0  0  0  0  0  0  0
   -8.8675    1.3602  -23.4057 N   0  0  0  0  0  0  0  0  0  0  0  0
   -7.9660    0.9124  -22.2936 C   0  0  0  0  0  0  0  0  0  0  0  0
   -8.3738    0.0979  -21.1018 O   0  0  0  0  0  0  0  0  0  0  0  0
   -6.5851    1.4220  -22.5825 C   0  0  0  0  0  0  0  0  0  0  0  0
   -6.6907    0.6333  -21.3110 C   0  0  0  0  0  0  0  0  0  0  0  0
   -5.4751    0.4180  -20.4589 N   0  0  0  0  0  0  0  0  0  0  0  0
   -4.1540    0.9913  -20.8783 C   0  0  0  0  0  0  0  0  0  0  0  0
   -2.9385    0.7760  -20.0262 O   0  0  0  0  0  0  0  0  0  0  0  0
   -4.0484    1.7801  -22.1499 C   0  0  0  0  0  0  0  0  0  0  0  0
   -2.7273    2.3534  -22.5692 C   0  0  0  0  0  0  0  0  0  0  0  0
   -2.6218    3.1421  -23.8407 C   0  0  0  0  0  0  0  0  0  0  0  0
   -3.8373    3.3575  -24.6928 C   0  0  0  0  0  0  0  0  0  0  0  0
   -3.7317    4.1462  -25.9644 F   0  0  0  0  0  0  0  0  0  0  0  0
   -5.1584    2.7841  -24.2735 C   0  0  0  0  0  0  0  0  0  0  0  0
   -5.2640    1.9954  -23.0020 C   0  0  0  0  0  0  0  0  0  0  0  0
  -10.3351    1.0722  -23.5212 C   0  0  0  0  0  0  0  0  0  0  0  0
  -10.8203   -0.3466  -23.5571 C   0  0  0  0  0  0  0  0  0  0  0  0
  -12.2879   -0.6347  -23.6726 N   0  0  0  0  0  0  0  0  0  0  0  0
  -13.2701    0.4962  -23.7522 C   0  0  0  0  0  0  0  0  0  0  0  0
  -12.7848    1.9151  -23.7163 C   0  0  0  0  0  0  0  0  0  0  0  0
  -13.7671    3.0460  -23.7959 C   0  0  0  0  0  0  0  0  0  0  0  0
  -13.2817    4.4648  -23.7600 C   0  0  0  0  0  0  0  0  0  0  0  0
  -11.8142    4.7527  -23.6445 C   0  0  0  0  0  0  0  0  0  0  0  0
  -10.8320    3.6219  -23.5649 C   0  0  0  0  0  0  0  0  0  0  0  0
  -11.3173    2.2031  -23.6008 C   0  0  0  0  0  0  0  0  0  0  0  0
   -5.5807   -0.3708  -19.1873 C   0  0  0  0  0  0  0  0  0  0  0  0
   -5.4025   -1.8599  -19.2115 C   0  0  0  0  0  0  0  0  0  0  0  0
   -5.2243   -3.3491  -19.2357 N   0  0  0  0  0  0  0  0  0  0  0  0
  2  1  1  0  0  0
  2  3  1  0  0  0
  3  4  1  0  0  0
  4 19  1  0  0  0
 19 20  2  0  0  0
 20 21  1  0  0  0
 21 22  2  0  0  0
 22 23  1  0  0  0
 23 24  2  0  0  0
 24 25  1  0  0  0
 25 26  2  0  0  0
 26 27  1  0  0  0
 27 28  2  0  0  0
  4  5  1  0  0  0
  5  6  2  0  0  0
  5  7  1  0  0  0
  7  8  1  0  0  0
  8  9  1  0  0  0
  9 29  1  0  0  0
 29 30  1  0  0  0
 30 31  3  0  0  0
  9 10  1  0  0  0
 10 11  2  0  0  0
 10 12  1  0  0  0
 12 13  2  0  0  0
 13 14  1  0  0  0
 14 15  2  0  0  0
 15 16  1  0  0  0
 15 17  1  0  0  0
 17 18  2  0  0  0
  7  2  1  0  0  0
 18 12  1  0  0  0
 28 19  1  0  0  0
 18  7  1  0  0  0
 28 23  1  0  0  0
M  END
> <minimizedAffinity>
-7.60678

> <CNNscore>
0.3228546679

> <CNNaffinity>
5.6419439316

> <CNN_VS>
1.8215279579

> <CNNaffinity_variance>
0.0929784700

$$$$



 31 35  0  0  0  0  0  0  0  0999 V2000
  -10.2312   -1.3478  -23.1598 C   0  0  0  0  0  0  0  0  0  0  0  0
   -9.4990   -0.0638  -23.4156 C   0  0  0  0  0  0  0  0  0  0  0  0
   -8.0116   -0.2574  -23.4248 C   0  0  0  0  0  0  0  0  0  0  0  0
   -7.3724    1.0741  -23.6864 N   0  0  0  0  0  0  0  0  0  0  0  0
   -8.4649    2.0906  -23.8390 C   0  0  0  0  0  0  0  0  0  0  0  0
   -8.2761    3.5536  -24.1111 O   0  0  0  0  0  0  0  0  0  0  0  0
   -9.7792    1.3874  -23.6716 C   0  0  0  0  0  0  0  0  0  0  0  0
   -9.9039    2.8586  -23.9359 C   0  0  0  0  0  0  0  0  0  0  0  0
  -11.2602    3.4948  -24.0112 N   0  0  0  0  0  0  0  0  0  0  0  0
  -12.4918    2.6598  -23.8223 C   0  0  0  0  0  0  0  0  0  0  0  0
  -13.8481    3.2960  -23.8977 O   0  0  0  0  0  0  0  0  0  0  0  0
  -12.3672    1.1884  -23.5580 C   0  0  0  0  0  0  0  0  0  0  0  0
  -13.5988    0.3534  -23.3691 C   0  0  0  0  0  0  0  0  0  0  0  0
  -13.4741   -1.1178  -23.1048 C   0  0  0  0  0  0  0  0  0  0  0  0
  -12.1178   -1.7540  -23.0295 C   0  0  0  0  0  0  0  0  0  0  0  0
  -11.9932   -3.2253  -22.7652 F   0  0  0  0  0  0  0  0  0  0  0  0
  -10.8862   -0.9190  -23.2184 C   0  0  0  0  0  0  0  0  0  0  0  0
  -11.0109    0.5522  -23.4827 C   0  0  0  0  0  0  0  0  0  0  0  0
   -5.8995    1.3421  -23.7793 C   0  0  0  0  0  0  0  0  0  0  0  0
   -5.2774    1.6609  -25.1063 C   0  0  0  0  0  0  0  0  0  0  0  0
   -3.8045    1.9289  -25.1991 N   0  0  0  0  0  0  0  0  0  0  0  0
   -2.9537    1.8781  -23.9648 C   0  0  0  0  0  0  0  0  0  0  0  0
   -3.5758    1.5593  -22.6377 C   0  0  0  0  0  0  0  0  0  0  0  0
   -2.7250    1.5085  -21.4033 C   0  0  0  0  0  0  0  0  0  0  0  0
   -3.3472    1.1896  -20.0762 C   0  0  0  0  0  0  0  0  0  0  0  0
   -4.8201    0.9217  -19.9835 C   0  0  0  0  0  0  0  0  0  0  0  0
   -5.6709    0.9725  -21.2178 C   0  0  0  0  0  0  0  0  0  0  0  0
   -5.0488    1.2913  -22.5449 C   0  0  0  0  0  0  0  0  0  0  0  0
  -11.3848    4.9661  -24.2755 C   0  0  0  0  0  0  0  0  0  0  0  0
  -12.7037    5.6538  -24.0819 C   0  0  0  0  0  0  0  0  0  0  0  0
  -14.0226    6.3415  -23.8883 N   0  0  0  0  0  0  0  0  0  0  0  0
  2  1  1  0  0  0
  2  3  1  0  0  0
  3  4  1  0  0  0
  4 19  1  0  0  0
 19 20  2  0  0  0
 20 21  1  0  0  0
 21 22  2  0  0  0
 22 23  1  0  0  0
 23 24  2  0  0  0
 24 25  1  0  0  0
 25 26  2  0  0  0
 26 27  1  0  0  0
 27 28  2  0  0  0
  4  5  1  0  0  0
  5  6  2  0  0  0
  5  7  1  0  0  0
  7  8  1  0  0  0
  8  9  1  0  0  0
  9 29  1  0  0  0
 29 30  1  0  0  0
 30 31  3  0  0  0
  9 10  1  0  0  0
 10 11  2  0  0  0
 10 12  1  0  0  0
 12 13  2  0  0  0
 13 14  1  0  0  0
 14 15  2  0  0  0
 15 16  1  0  0  0
 15 17  1  0  0  0
 17 18  2  0  0  0
  7  2  1  0  0  0
 18 12  1  0  0  0
 28 19  1  0  0  0
 18  7  1  0  0  0
 28 23  1  0  0  0
M  END
> <minimizedAffinity>
-7.44337

> <CNNscore>
0.3059390783

> <CNNaffinity>
5.9748511314

> <CNN_VS>
1.8279404640

> <CNNaffinity_variance>
0.0677299127

$$$$



 31 35  0  0  0  0  0  0  0  0999 V2000
  -10.1701    4.0401  -24.0391 C   0  0  0  0  0  0  0  0  0  0  0  0
   -9.5263    2.7100  -23.7809 C   0  0  0  0  0  0  0  0  0  0  0  0
   -8.0303    2.8098  -23.7328 C   0  0  0  0  0  0  0  0  0  0  0  0
   -7.4825    1.4381  -23.4715 N   0  0  0  0  0  0  0  0  0  0  0  0
   -8.6398    0.4906  -23.3581 C   0  0  0  0  0  0  0  0  0  0  0  0
   -8.5498   -0.9841  -23.0990 O   0  0  0  0  0  0  0  0  0  0  0  0
   -9.9030    1.2767  -23.5493 C   0  0  0  0  0  0  0  0  0  0  0  0
  -10.1260   -0.1865  -23.3059 C   0  0  0  0  0  0  0  0  0  0  0  0
  -11.5208   -0.7370  -23.2715 N   0  0  0  0  0  0  0  0  0  0  0  0
  -12.6927    0.1756  -23.4806 C   0  0  0  0  0  0  0  0  0  0  0  0
  -14.0876   -0.3750  -23.4463 O   0  0  0  0  0  0  0  0  0  0  0  0
  -12.4698    1.6389  -23.7241 C   0  0  0  0  0  0  0  0  0  0  0  0
  -13.6416    2.5515  -23.9332 C   0  0  0  0  0  0  0  0  0  0  0  0
  -13.4186    4.0147  -24.1766 C   0  0  0  0  0  0  0  0  0  0  0  0
  -12.0237    4.5652  -24.2110 C   0  0  0  0  0  0  0  0  0  0  0  0
  -11.8008    6.0285  -24.4544 F   0  0  0  0  0  0  0  0  0  0  0  0
  -10.8519    3.6526  -24.0019 C   0  0  0  0  0  0  0  0  0  0  0  0
  -11.0749    2.1894  -23.7584 C   0  0  0  0  0  0  0  0  0  0  0  0
   -6.0320    1.0772  -23.3457 C   0  0  0  0  0  0  0  0  0  0  0  0
   -5.3280    1.2473  -22.0322 C   0  0  0  0  0  0  0  0  0  0  0  0
   -3.8776    0.8864  -21.9064 N   0  0  0  0  0  0  0  0  0  0  0  0
   -3.1311    0.3554  -23.0942 C   0  0  0  0  0  0  0  0  0  0  0  0
   -3.8351    0.1853  -24.4078 C   0  0  0  0  0  0  0  0  0  0  0  0
   -3.0886   -0.3457  -25.5956 C   0  0  0  0  0  0  0  0  0  0  0  0
   -3.7927   -0.5157  -26.9091 C   0  0  0  0  0  0  0  0  0  0  0  0
   -5.2431   -0.1548  -27.0348 C   0  0  0  0  0  0  0  0  0  0  0  0
   -5.9896    0.3762  -25.8471 C   0  0  0  0  0  0  0  0  0  0  0  0
   -5.2856    0.5462  -24.5336 C   0  0  0  0  0  0  0  0  0  0  0  0
  -11.7438   -2.2003  -23.0281 C   0  0  0  0  0  0  0  0  0  0  0  0
  -12.8552   -2.6498  -22.1266 C   0  0  0  0  0  0  0  0  0  0  0  0
  -13.9665   -3.0993  -21.2250 N   0  0  0  0  0  0  0  0  0  0  0  0
  2  1  1  0  0  0
  2  3  1  0  0  0
  3  4  1  0  0  0
  4 19  1  0  0  0
 19 20  2  0  0  0
 20 21  1  0  0  0
 21 22  2  0  0  0
 22 23  1  0  0  0
 23 24  2  0  0  0
 24 25  1  0  0  0
 25 26  2  0  0  0
 26 27  1  0  0  0
 27 28  2  0  0  0
  4  5  1  0  0  0
  5  6  2  0  0  0
  5  7  1  0  0  0
  7  8  1  0  0  0
  8  9  1  0  0  0
  9 29  1  0  0  0
 29 30  1  0  0  0
 30 31  3  0  0  0
  9 10  1  0  0  0
 10 11  2  0  0  0
 10 12  1  0  0  0
 12 13  2  0  0  0
 13 14  1  0  0  0
 14 15  2  0  0  0
 15 16  1  0  0  0
 15 17  1  0  0  0
 17 18  2  0  0  0
  7  2  1  0  0  0
 18 12  1  0  0  0
 28 19  1  0  0  0
 18  7  1  0  0  0
 28 23  1  0  0  0
M  END
> <minimizedAffinity>
-6.92170

> <CNNscore>
0.2855140865

> <CNNaffinity>
5.7248973846

> <CNN_VS>
1.6345388889

> <CNNaffinity_variance>
0.2032824755

$$$$
