


 45 51  0  0  0  0  0  0  0  0999 V2000
    6.9851   -6.5783   24.7914 O   0  0  0  0  0  0  0  0  0  0  0  0
    7.0084   -5.2733   24.0522 C   0  0  0  0  0  0  0  0  0  0  0  0
    8.0326   -4.2334   24.3986 C   0  0  0  0  0  0  0  0  0  0  0  0
    9.0333   -4.4986   25.4840 C   0  0  0  0  0  0  0  0  0  0  0  0
   10.0573   -3.4587   25.8303 C   0  0  0  0  0  0  0  0  0  0  0  0
   10.0807   -2.1536   25.0911 C   0  0  0  0  0  0  0  0  0  0  0  0
   11.2109   -1.3640   25.6821 Cl  0  0  0  0  0  0  0  0  0  0  0  0
    9.0799   -1.8884   24.0057 C   0  0  0  0  0  0  0  0  0  0  0  0
    8.0559   -2.9283   23.6595 C   0  0  0  0  0  0  0  0  0  0  0  0
    7.0551   -2.6631   22.5740 C   0  0  0  0  0  0  0  0  0  0  0  0
    6.0310   -3.7030   22.2277 C   0  0  0  0  0  0  0  0  0  0  0  0
    6.0077   -5.0081   22.9668 N   0  0  0  0  0  0  0  0  0  0  0  0
    6.1230   -2.2579   21.4708 C   0  0  0  0  0  0  0  0  0  0  0  0
    5.0040   -3.0865   20.9130 O   0  0  0  0  0  0  0  0  0  0  0  0
    6.5064   -0.8785   21.0233 N   0  0  0  0  0  0  0  0  0  0  0  0
    7.6755   -0.4312   21.8499 C   0  0  0  0  0  0  0  0  0  0  0  0
    8.0145   -1.5342   22.8083 C   0  0  0  0  0  0  0  0  0  0  0  0
    5.8381   -0.0856   19.9395 C   0  0  0  0  0  0  0  0  0  0  0  0
    6.3506   -0.1591   18.5317 C   0  0  0  0  0  0  0  0  0  0  0  0
    5.6823    0.6338   17.4479 N   0  0  0  0  0  0  0  0  0  0  0  0
    4.5015    1.5002   17.7719 C   0  0  0  0  0  0  0  0  0  0  0  0
    3.9889    1.5736   19.1797 C   0  0  0  0  0  0  0  0  0  0  0  0
    2.8080    2.4400   19.5037 C   0  0  0  0  0  0  0  0  0  0  0  0
    2.2955    2.5134   20.9115 C   0  0  0  0  0  0  0  0  0  0  0  0
    2.9638    1.7206   21.9952 C   0  0  0  0  0  0  0  0  0  0  0  0
    4.1447    0.8542   21.6713 C   0  0  0  0  0  0  0  0  0  0  0  0
    4.6572    0.7807   20.2635 C   0  0  0  0  0  0  0  0  0  0  0  0
    4.9836   -6.0479   22.6205 C   0  0  0  0  0  0  0  0  0  0  0  0
    3.7357   -6.1748   23.4431 C   0  0  0  0  0  0  0  0  0  0  0  0
    3.8323   -6.4415   24.9160 N   0  0  0  0  0  0  0  0  0  0  0  0
    3.9384   -7.8513   25.4176 C   0  0  0  0  0  0  0  0  0  0  0  0
    4.0349   -8.1180   26.8905 C   0  0  0  0  0  0  0  0  0  0  0  0
    4.0254   -6.9750   27.8618 O   0  0  0  0  0  0  0  0  0  0  0  0
    3.9193   -5.5654   27.3603 C   0  0  0  0  0  0  0  0  0  0  0  0
    3.8228   -5.2986   25.8873 C   0  0  0  0  0  0  0  0  0  0  0  0
    3.8979   -6.6229   25.9176 H   0  0  0  0  0  0  0  0  0  0  0  0
    9.1192   -1.5121   23.8228 C   0  0  0  0  0  0  0  0  0  0  0  0
    9.3882   -0.2650   24.6117 N   0  0  0  0  0  0  0  0  0  0  0  0
    9.2426   -0.2575   25.5854 H   0  0  0  0  0  0  0  0  0  0  0  0
    9.8791    0.9706   23.9174 C   0  0  0  0  0  0  0  0  0  0  0  0
   11.3095    1.0646   23.4757 N   0  0  0  0  0  0  0  0  0  0  0  0
   11.8003    2.3003   22.7813 C   0  0  0  0  0  0  0  0  0  0  0  0
   10.8608    3.4419   22.5285 C   0  0  0  0  0  0  0  0  0  0  0  0
    9.4304    3.3478   22.9701 C   0  0  0  0  0  0  0  0  0  0  0  0
    8.9395    2.1123   23.6645 N   0  0  0  0  0  0  0  0  0  0  0  0
  1  2  2  0  0  0
  2  3  1  0  0  0
  3  4  2  0  0  0
  4  5  1  0  0  0
  5  6  2  0  0  0
  6  7  1  0  0  0
  6  8  1  0  0  0
  8  9  2  0  0  0
  9 10  1  0  0  0
 10 11  1  0  0  0
 11 12  1  0  0  0
 12 28  1  0  0  0
 28 29  1  0  0  0
 29 30  1  0  0  0
 30 31  1  0  0  0
 31 32  1  0  0  0
 32 33  1  0  0  0
 33 34  1  0  0  0
 34 35  1  0  0  0
 10 13  1  0  0  0
 13 14  2  0  0  0
 13 15  1  0  0  0
 15 18  1  0  0  0
 18 19  2  0  0  0
 19 20  1  0  0  0
 20 21  2  0  0  0
 21 22  1  0  0  0
 22 23  2  0  0  0
 23 24  1  0  0  0
 24 25  2  0  0  0
 25 26  1  0  0  0
 26 27  2  0  0  0
 15 16  1  0  0  0
 16 17  1  0  0  0
 17 37  1  0  0  0
 37 38  1  0  0  0
 38 40  1  0  0  0
 40 41  2  0  0  0
 41 42  1  0  0  0
 42 43  2  0  0  0
 43 44  1  0  0  0
 44 45  2  0  0  0
 12  2  1  0  0  0
 35 30  1  0  0  0
 27 18  1  0  0  0
 45 40  1  0  0  0
  9  3  1  0  0  0
 17 10  1  0  0  0
 27 22  1  0  0  0
 30 36  1  0  0  0
 38 39  1  0  0  0
M  CHG 1  30   1
M  END
> <minimizedAffinity>
-8.62837

> <CNNscore>
0.6234079599

> <CNNaffinity>
7.1089515686

> <CNN_VS>
4.4317770004

> <CNNaffinity_variance>
0.1800541133

$$$$



 45 51  0  0  0  0  0  0  0  0999 V2000
    7.8528    4.7594   23.0315 O   0  0  0  0  0  0  0  0  0  0  0  0
    7.8400    3.2603   23.0825 C   0  0  0  0  0  0  0  0  0  0  0  0
    9.1276    2.4958   22.9946 C   0  0  0  0  0  0  0  0  0  0  0  0
   10.4280    3.2304   22.8557 C   0  0  0  0  0  0  0  0  0  0  0  0
   11.7155    2.4660   22.7677 C   0  0  0  0  0  0  0  0  0  0  0  0
   11.7027    0.9669   22.8187 C   0  0  0  0  0  0  0  0  0  0  0  0
   13.1356    0.5372   22.7069 Cl  0  0  0  0  0  0  0  0  0  0  0  0
   10.4023    0.2323   22.9576 C   0  0  0  0  0  0  0  0  0  0  0  0
    9.1148    0.9968   23.0456 C   0  0  0  0  0  0  0  0  0  0  0  0
    7.8143    0.2621   23.1845 C   0  0  0  0  0  0  0  0  0  0  0  0
    6.5268    1.0266   23.2724 C   0  0  0  0  0  0  0  0  0  0  0  0
    6.5396    2.5257   23.2214 N   0  0  0  0  0  0  0  0  0  0  0  0
    6.5980   -0.6051   23.3204 C   0  0  0  0  0  0  0  0  0  0  0  0
    5.1809   -0.1255   23.4292 O   0  0  0  0  0  0  0  0  0  0  0  0
    7.0475   -2.0361   23.3284 N   0  0  0  0  0  0  0  0  0  0  0  0
    8.5417   -2.0534   23.1974 C   0  0  0  0  0  0  0  0  0  0  0  0
    9.0156   -0.6330   23.1085 C   0  0  0  0  0  0  0  0  0  0  0  0
    6.1588   -3.2387   23.4466 C   0  0  0  0  0  0  0  0  0  0  0  0
    5.7174   -3.9692   22.2132 C   0  0  0  0  0  0  0  0  0  0  0  0
    4.8288   -5.1719   22.3315 N   0  0  0  0  0  0  0  0  0  0  0  0
    4.3816   -5.6439   23.6832 C   0  0  0  0  0  0  0  0  0  0  0  0
    4.8230   -4.9134   24.9166 C   0  0  0  0  0  0  0  0  0  0  0  0
    4.3758   -5.3855   26.2684 C   0  0  0  0  0  0  0  0  0  0  0  0
    4.8173   -4.6549   27.5018 C   0  0  0  0  0  0  0  0  0  0  0  0
    5.7059   -3.4523   27.3835 C   0  0  0  0  0  0  0  0  0  0  0  0
    6.1531   -2.9803   26.0318 C   0  0  0  0  0  0  0  0  0  0  0  0
    5.7117   -3.7108   24.7984 C   0  0  0  0  0  0  0  0  0  0  0  0
    5.2520    3.2902   23.3093 C   0  0  0  0  0  0  0  0  0  0  0  0
    4.6349    3.8651   22.0690 C   0  0  0  0  0  0  0  0  0  0  0  0
    4.6954    5.3424   21.8167 N   0  0  0  0  0  0  0  0  0  0  0  0
    3.5564    6.2227   22.2385 C   0  0  0  0  0  0  0  0  0  0  0  0
    3.6170    7.7000   21.9862 C   0  0  0  0  0  0  0  0  0  0  0  0
    4.8165    8.2972   21.3121 O   0  0  0  0  0  0  0  0  0  0  0  0
    5.9555    7.4171   20.8903 C   0  0  0  0  0  0  0  0  0  0  0  0
    5.8950    5.9396   21.1425 C   0  0  0  0  0  0  0  0  0  0  0  0
    4.7366    6.3471   21.6451 H   0  0  0  0  0  0  0  0  0  0  0  0
   10.4406   -0.1861   22.9682 C   0  0  0  0  0  0  0  0  0  0  0  0
   11.3090   -0.0558   24.1842 N   0  0  0  0  0  0  0  0  0  0  0  0
   11.6544    0.8270   24.4501 H   0  0  0  0  0  0  0  0  0  0  0  0
   11.6514   -1.2702   24.9951 C   0  0  0  0  0  0  0  0  0  0  0  0
   10.6277   -2.3468   25.2023 N   0  0  0  0  0  0  0  0  0  0  0  0
   10.9701   -3.5614   26.0132 C   0  0  0  0  0  0  0  0  0  0  0  0
   12.3362   -3.6993   26.6171 C   0  0  0  0  0  0  0  0  0  0  0  0
   13.3599   -2.6227   26.4100 C   0  0  0  0  0  0  0  0  0  0  0  0
   13.0176   -1.4082   25.5990 N   0  0  0  0  0  0  0  0  0  0  0  0
  1  2  2  0  0  0
  2  3  1  0  0  0
  3  4  2  0  0  0
  4  5  1  0  0  0
  5  6  2  0  0  0
  6  7  1  0  0  0
  6  8  1  0  0  0
  8  9  2  0  0  0
  9 10  1  0  0  0
 10 11  1  0  0  0
 11 12  1  0  0  0
 12 28  1  0  0  0
 28 29  1  0  0  0
 29 30  1  0  0  0
 30 31  1  0  0  0
 31 32  1  0  0  0
 32 33  1  0  0  0
 33 34  1  0  0  0
 34 35  1  0  0  0
 10 13  1  0  0  0
 13 14  2  0  0  0
 13 15  1  0  0  0
 15 18  1  0  0  0
 18 19  2  0  0  0
 19 20  1  0  0  0
 20 21  2  0  0  0
 21 22  1  0  0  0
 22 23  2  0  0  0
 23 24  1  0  0  0
 24 25  2  0  0  0
 25 26  1  0  0  0
 26 27  2  0  0  0
 15 16  1  0  0  0
 16 17  1  0  0  0
 17 37  1  0  0  0
 37 38  1  0  0  0
 38 40  1  0  0  0
 40 41  2  0  0  0
 41 42  1  0  0  0
 42 43  2  0  0  0
 43 44  1  0  0  0
 44 45  2  0  0  0
 12  2  1  0  0  0
 35 30  1  0  0  0
 27 18  1  0  0  0
 45 40  1  0  0  0
  9  3  1  0  0  0
 17 10  1  0  0  0
 27 22  1  0  0  0
 30 36  1  0  0  0
 38 39  1  0  0  0
M  CHG 1  30   1
M  END
> <minimizedAffinity>
-8.49716

> <CNNscore>
0.5285519958

> <CNNaffinity>
7.1653342247

> <CNN_VS>
3.7872517109

> <CNNaffinity_variance>
0.0611086898

$$$$



 45 51  0  0  0  0  0  0  0  0999 V2000
    5.5901    4.5842   21.7587 O   0  0  0  0  0  0  0  0  0  0  0  0
    6.4386    3.3588   21.9271 C   0  0  0  0  0  0  0  0  0  0  0  0
    6.1708    2.1408   21.0934 C   0  0  0  0  0  0  0  0  0  0  0  0
    5.0546    2.1483   20.0914 C   0  0  0  0  0  0  0  0  0  0  0  0
    4.7869    0.9304   19.2578 C   0  0  0  0  0  0  0  0  0  0  0  0
    5.6354   -0.2950   19.4261 C   0  0  0  0  0  0  0  0  0  0  0  0
    5.1011   -1.3046   18.4537 Cl  0  0  0  0  0  0  0  0  0  0  0  0
    6.7517   -0.3025   20.4281 C   0  0  0  0  0  0  0  0  0  0  0  0
    7.0194    0.9154   21.2617 C   0  0  0  0  0  0  0  0  0  0  0  0
    8.1357    0.9080   22.2637 C   0  0  0  0  0  0  0  0  0  0  0  0
    8.4034    2.1259   23.0973 C   0  0  0  0  0  0  0  0  0  0  0  0
    7.5548    3.3513   22.9290 N   0  0  0  0  0  0  0  0  0  0  0  0
    9.2809    0.7530   23.2200 C   0  0  0  0  0  0  0  0  0  0  0  0
    9.7786    1.7963   24.1759 O   0  0  0  0  0  0  0  0  0  0  0  0
    9.8410   -0.6284   23.0526 N   0  0  0  0  0  0  0  0  0  0  0  0
    9.0419   -1.3272   21.9928 C   0  0  0  0  0  0  0  0  0  0  0  0
    7.9880   -0.3777   21.5052 C   0  0  0  0  0  0  0  0  0  0  0  0
   10.9971   -1.2090   23.8117 C   0  0  0  0  0  0  0  0  0  0  0  0
   12.4021   -0.8489   23.4292 C   0  0  0  0  0  0  0  0  0  0  0  0
   13.5582   -1.4295   24.1883 N   0  0  0  0  0  0  0  0  0  0  0  0
   13.3093   -2.3701   25.3299 C   0  0  0  0  0  0  0  0  0  0  0  0
   11.9043   -2.7302   25.7123 C   0  0  0  0  0  0  0  0  0  0  0  0
   11.6554   -3.6709   26.8540 C   0  0  0  0  0  0  0  0  0  0  0  0
   10.2504   -4.0309   27.2364 C   0  0  0  0  0  0  0  0  0  0  0  0
    9.0943   -3.4503   26.4773 C   0  0  0  0  0  0  0  0  0  0  0  0
    9.3432   -2.5097   25.3357 C   0  0  0  0  0  0  0  0  0  0  0  0
   10.7481   -2.1496   24.9532 C   0  0  0  0  0  0  0  0  0  0  0  0
    7.8226    4.5693   23.7627 C   0  0  0  0  0  0  0  0  0  0  0  0
    8.4002    5.7999   23.1288 C   0  0  0  0  0  0  0  0  0  0  0  0
    9.8493    5.8351   22.7431 N   0  0  0  0  0  0  0  0  0  0  0  0
   10.6450    4.5642   22.6994 C   0  0  0  0  0  0  0  0  0  0  0  0
   12.0941    4.5995   22.3138 C   0  0  0  0  0  0  0  0  0  0  0  0
   12.7477    5.9056   21.9718 O   0  0  0  0  0  0  0  0  0  0  0  0
   11.9521    7.1764   22.0154 C   0  0  0  0  0  0  0  0  0  0  0  0
   10.5029    7.1412   22.4011 C   0  0  0  0  0  0  0  0  0  0  0  0
   10.8348    5.8591   22.4809 H   0  0  0  0  0  0  0  0  0  0  0  0
    6.9659   -0.6637   20.4453 C   0  0  0  0  0  0  0  0  0  0  0  0
    5.6696   -1.3235   20.8118 N   0  0  0  0  0  0  0  0  0  0  0  0
    4.8439   -1.0878   20.3303 H   0  0  0  0  0  0  0  0  0  0  0  0
    5.6313   -2.3423   21.9119 C   0  0  0  0  0  0  0  0  0  0  0  0
    5.4326   -3.7926   21.5845 N   0  0  0  0  0  0  0  0  0  0  0  0
    5.3943   -4.8115   22.6847 C   0  0  0  0  0  0  0  0  0  0  0  0
    5.5546   -4.3801   24.1124 C   0  0  0  0  0  0  0  0  0  0  0  0
    5.7533   -2.9298   24.4398 C   0  0  0  0  0  0  0  0  0  0  0  0
    5.7916   -1.9110   23.3397 N   0  0  0  0  0  0  0  0  0  0  0  0
  1  2  2  0  0  0
  2  3  1  0  0  0
  3  4  2  0  0  0
  4  5  1  0  0  0
  5  6  2  0  0  0
  6  7  1  0  0  0
  6  8  1  0  0  0
  8  9  2  0  0  0
  9 10  1  0  0  0
 10 11  1  0  0  0
 11 12  1  0  0  0
 12 28  1  0  0  0
 28 29  1  0  0  0
 29 30  1  0  0  0
 30 31  1  0  0  0
 31 32  1  0  0  0
 32 33  1  0  0  0
 33 34  1  0  0  0
 34 35  1  0  0  0
 10 13  1  0  0  0
 13 14  2  0  0  0
 13 15  1  0  0  0
 15 18  1  0  0  0
 18 19  2  0  0  0
 19 20  1  0  0  0
 20 21  2  0  0  0
 21 22  1  0  0  0
 22 23  2  0  0  0
 23 24  1  0  0  0
 24 25  2  0  0  0
 25 26  1  0  0  0
 26 27  2  0  0  0
 15 16  1  0  0  0
 16 17  1  0  0  0
 17 37  1  0  0  0
 37 38  1  0  0  0
 38 40  1  0  0  0
 40 41  2  0  0  0
 41 42  1  0  0  0
 42 43  2  0  0  0
 43 44  1  0  0  0
 44 45  2  0  0  0
 12  2  1  0  0  0
 35 30  1  0  0  0
 27 18  1  0  0  0
 45 40  1  0  0  0
  9  3  1  0  0  0
 17 10  1  0  0  0
 27 22  1  0  0  0
 30 36  1  0  0  0
 38 39  1  0  0  0
M  CHG 1  30   1
M  END
> <minimizedAffinity>
-8.91344

> <CNNscore>
0.5266402364

> <CNNaffinity>
7.2947263718

> <CNN_VS>
3.8416965008

> <CNNaffinity_variance>
0.4140951037

$$$$



 45 51  0  0  0  0  0  0  0  0999 V2000
    8.0426    5.0490   23.2758 O   0  0  0  0  0  0  0  0  0  0  0  0
    7.9690    3.5747   23.5418 C   0  0  0  0  0  0  0  0  0  0  0  0
    9.1716    2.7093   23.3074 C   0  0  0  0  0  0  0  0  0  0  0  0
   10.4478    3.3183   22.8070 C   0  0  0  0  0  0  0  0  0  0  0  0
   11.6503    2.4529   22.5726 C   0  0  0  0  0  0  0  0  0  0  0  0
   11.5767    0.9785   22.8387 C   0  0  0  0  0  0  0  0  0  0  0  0
   12.9322    0.4298   22.5042 Cl  0  0  0  0  0  0  0  0  0  0  0  0
   10.3005    0.3695   23.3391 C   0  0  0  0  0  0  0  0  0  0  0  0
    9.0980    1.2349   23.5735 C   0  0  0  0  0  0  0  0  0  0  0  0
    7.8217    0.6259   24.0740 C   0  0  0  0  0  0  0  0  0  0  0  0
    6.6192    1.4913   24.3084 C   0  0  0  0  0  0  0  0  0  0  0  0
    6.6928    2.9657   24.0423 N   0  0  0  0  0  0  0  0  0  0  0  0
    6.6207   -0.1210   24.5736 C   0  0  0  0  0  0  0  0  0  0  0  0
    5.2823    0.4754   24.8949 O   0  0  0  0  0  0  0  0  0  0  0  0
    6.9929   -1.5689   24.6956 N   0  0  0  0  0  0  0  0  0  0  0  0
    8.4240   -1.7170   24.2713 C   0  0  0  0  0  0  0  0  0  0  0  0
    8.9362   -0.3605   23.8872 C   0  0  0  0  0  0  0  0  0  0  0  0
    6.0921   -2.6747   25.1602 C   0  0  0  0  0  0  0  0  0  0  0  0
    5.4478   -2.5989   26.5126 C   0  0  0  0  0  0  0  0  0  0  0  0
    4.5470   -3.7047   26.9772 N   0  0  0  0  0  0  0  0  0  0  0  0
    4.2906   -4.8862   26.0894 C   0  0  0  0  0  0  0  0  0  0  0  0
    4.9349   -4.9619   24.7369 C   0  0  0  0  0  0  0  0  0  0  0  0
    4.6784   -6.1435   23.8491 C   0  0  0  0  0  0  0  0  0  0  0  0
    5.3228   -6.2192   22.4967 C   0  0  0  0  0  0  0  0  0  0  0  0
    6.2236   -5.1135   22.0321 C   0  0  0  0  0  0  0  0  0  0  0  0
    6.4800   -3.9320   22.9199 C   0  0  0  0  0  0  0  0  0  0  0  0
    5.8357   -3.8562   24.2723 C   0  0  0  0  0  0  0  0  0  0  0  0
    5.4902    3.8311   24.2767 C   0  0  0  0  0  0  0  0  0  0  0  0
    4.6975    4.3450   23.1116 C   0  0  0  0  0  0  0  0  0  0  0  0
    4.9988    5.6978   22.5378 N   0  0  0  0  0  0  0  0  0  0  0  0
    5.8015    5.8155   21.2761 C   0  0  0  0  0  0  0  0  0  0  0  0
    6.1028    7.1683   20.7024 C   0  0  0  0  0  0  0  0  0  0  0  0
    5.6013    8.4033   21.3902 O   0  0  0  0  0  0  0  0  0  0  0  0
    4.7986    8.2857   22.6519 C   0  0  0  0  0  0  0  0  0  0  0  0
    4.4973    6.9329   23.2257 C   0  0  0  0  0  0  0  0  0  0  0  0
    5.2036    6.6177   22.1477 H   0  0  0  0  0  0  0  0  0  0  0  0
   10.3201   -0.0457   23.4014 C   0  0  0  0  0  0  0  0  0  0  0  0
   11.4474    0.0861   24.3821 N   0  0  0  0  0  0  0  0  0  0  0  0
   11.8857    0.9577   24.5141 H   0  0  0  0  0  0  0  0  0  0  0  0
   11.9070   -1.1100   25.1618 C   0  0  0  0  0  0  0  0  0  0  0  0
   10.9072   -2.1145   25.6530 N   0  0  0  0  0  0  0  0  0  0  0  0
   11.3669   -3.3107   26.4327 C   0  0  0  0  0  0  0  0  0  0  0  0
   12.8263   -3.5024   26.7211 C   0  0  0  0  0  0  0  0  0  0  0  0
   13.8261   -2.4979   26.2298 C   0  0  0  0  0  0  0  0  0  0  0  0
   13.3665   -1.3018   25.4502 N   0  0  0  0  0  0  0  0  0  0  0  0
  1  2  2  0  0  0
  2  3  1  0  0  0
  3  4  2  0  0  0
  4  5  1  0  0  0
  5  6  2  0  0  0
  6  7  1  0  0  0
  6  8  1  0  0  0
  8  9  2  0  0  0
  9 10  1  0  0  0
 10 11  1  0  0  0
 11 12  1  0  0  0
 12 28  1  0  0  0
 28 29  1  0  0  0
 29 30  1  0  0  0
 30 31  1  0  0  0
 31 32  1  0  0  0
 32 33  1  0  0  0
 33 34  1  0  0  0
 34 35  1  0  0  0
 10 13  1  0  0  0
 13 14  2  0  0  0
 13 15  1  0  0  0
 15 18  1  0  0  0
 18 19  2  0  0  0
 19 20  1  0  0  0
 20 21  2  0  0  0
 21 22  1  0  0  0
 22 23  2  0  0  0
 23 24  1  0  0  0
 24 25  2  0  0  0
 25 26  1  0  0  0
 26 27  2  0  0  0
 15 16  1  0  0  0
 16 17  1  0  0  0
 17 37  1  0  0  0
 37 38  1  0  0  0
 38 40  1  0  0  0
 40 41  2  0  0  0
 41 42  1  0  0  0
 42 43  2  0  0  0
 43 44  1  0  0  0
 44 45  2  0  0  0
 12  2  1  0  0  0
 35 30  1  0  0  0
 27 18  1  0  0  0
 45 40  1  0  0  0
  9  3  1  0  0  0
 17 10  1  0  0  0
 27 22  1  0  0  0
 30 36  1  0  0  0
 38 39  1  0  0  0
M  CHG 1  30   1
M  END
> <minimizedAffinity>
-8.06576

> <CNNscore>
0.4666193128

> <CNNaffinity>
7.0845594406

> <CNN_VS>
3.3057923317

> <CNNaffinity_variance>
0.2316775769

$$$$



 45 51  0  0  0  0  0  0  0  0999 V2000
    8.0830   -3.4967   27.5062 O   0  0  0  0  0  0  0  0  0  0  0  0
    8.0689   -2.8641   26.1462 C   0  0  0  0  0  0  0  0  0  0  0  0
    9.3605   -2.5707   25.4420 C   0  0  0  0  0  0  0  0  0  0  0  0
   10.6661   -2.9099   26.0979 C   0  0  0  0  0  0  0  0  0  0  0  0
   11.9576   -2.6165   25.3938 C   0  0  0  0  0  0  0  0  0  0  0  0
   11.9435   -1.9839   24.0338 C   0  0  0  0  0  0  0  0  0  0  0  0
   13.3812   -1.8350   23.6322 Cl  0  0  0  0  0  0  0  0  0  0  0  0
   10.6379   -1.6447   23.3779 C   0  0  0  0  0  0  0  0  0  0  0  0
    9.3464   -1.9381   24.0820 C   0  0  0  0  0  0  0  0  0  0  0  0
    8.0406   -1.5990   23.4261 C   0  0  0  0  0  0  0  0  0  0  0  0
    6.7491   -1.8924   24.1303 C   0  0  0  0  0  0  0  0  0  0  0  0
    6.7632   -2.5249   25.4903 N   0  0  0  0  0  0  0  0  0  0  0  0
    6.8192   -1.2057   22.6493 C   0  0  0  0  0  0  0  0  0  0  0  0
    5.3975   -1.3761   23.0960 O   0  0  0  0  0  0  0  0  0  0  0  0
    7.2692   -0.6123   21.3472 N   0  0  0  0  0  0  0  0  0  0  0  0
    8.7687   -0.6387   21.3193 C   0  0  0  0  0  0  0  0  0  0  0  0
    9.2454   -1.2485   22.6042 C   0  0  0  0  0  0  0  0  0  0  0  0
    6.3763   -0.0849   20.2633 C   0  0  0  0  0  0  0  0  0  0  0  0
    6.3545   -0.7508   18.9195 C   0  0  0  0  0  0  0  0  0  0  0  0
    5.4617   -0.2234   17.8356 N   0  0  0  0  0  0  0  0  0  0  0  0
    4.5907    0.9697   18.0957 C   0  0  0  0  0  0  0  0  0  0  0  0
    4.6125    1.6356   19.4396 C   0  0  0  0  0  0  0  0  0  0  0  0
    3.7414    2.8288   19.6997 C   0  0  0  0  0  0  0  0  0  0  0  0
    3.7633    3.4946   21.0437 C   0  0  0  0  0  0  0  0  0  0  0  0
    4.6561    2.9672   22.1275 C   0  0  0  0  0  0  0  0  0  0  0  0
    5.5271    1.7741   21.8674 C   0  0  0  0  0  0  0  0  0  0  0  0
    5.5053    1.1082   20.5235 C   0  0  0  0  0  0  0  0  0  0  0  0
    5.4716   -2.8183   26.1944 C   0  0  0  0  0  0  0  0  0  0  0  0
    4.9297   -1.8485   27.2022 C   0  0  0  0  0  0  0  0  0  0  0  0
    4.7356   -2.2771   28.6265 N   0  0  0  0  0  0  0  0  0  0  0  0
    5.5542   -1.6509   29.7164 C   0  0  0  0  0  0  0  0  0  0  0  0
    5.3601   -2.0795   31.1407 C   0  0  0  0  0  0  0  0  0  0  0  0
    4.3473   -3.1343   31.4751 O   0  0  0  0  0  0  0  0  0  0  0  0
    3.5287   -3.7605   30.3853 C   0  0  0  0  0  0  0  0  0  0  0  0
    3.7228   -3.3319   28.9609 C   0  0  0  0  0  0  0  0  0  0  0  0
    4.6036   -2.5686   29.5950 H   0  0  0  0  0  0  0  0  0  0  0  0
   10.6759   -1.4691   22.9979 C   0  0  0  0  0  0  0  0  0  0  0  0
   11.4637   -0.3537   23.6187 N   0  0  0  0  0  0  0  0  0  0  0  0
   12.1916   -0.5570   24.2496 H   0  0  0  0  0  0  0  0  0  0  0  0
   11.1425    1.0713   23.2782 C   0  0  0  0  0  0  0  0  0  0  0  0
   12.1963    1.9553   22.6799 N   0  0  0  0  0  0  0  0  0  0  0  0
   11.8751    3.3804   22.3395 C   0  0  0  0  0  0  0  0  0  0  0  0
   10.5000    3.9215   22.5972 C   0  0  0  0  0  0  0  0  0  0  0  0
    9.4462    3.0375   23.1955 C   0  0  0  0  0  0  0  0  0  0  0  0
    9.7674    1.6124   23.5360 N   0  0  0  0  0  0  0  0  0  0  0  0
  1  2  2  0  0  0
  2  3  1  0  0  0
  3  4  2  0  0  0
  4  5  1  0  0  0
  5  6  2  0  0  0
  6  7  1  0  0  0
  6  8  1  0  0  0
  8  9  2  0  0  0
  9 10  1  0  0  0
 10 11  1  0  0  0
 11 12  1  0  0  0
 12 28  1  0  0  0
 28 29  1  0  0  0
 29 30  1  0  0  0
 30 31  1  0  0  0
 31 32  1  0  0  0
 32 33  1  0  0  0
 33 34  1  0  0  0
 34 35  1  0  0  0
 10 13  1  0  0  0
 13 14  2  0  0  0
 13 15  1  0  0  0
 15 18  1  0  0  0
 18 19  2  0  0  0
 19 20  1  0  0  0
 20 21  2  0  0  0
 21 22  1  0  0  0
 22 23  2  0  0  0
 23 24  1  0  0  0
 24 25  2  0  0  0
 25 26  1  0  0  0
 26 27  2  0  0  0
 15 16  1  0  0  0
 16 17  1  0  0  0
 17 37  1  0  0  0
 37 38  1  0  0  0
 38 40  1  0  0  0
 40 41  2  0  0  0
 41 42  1  0  0  0
 42 43  2  0  0  0
 43 44  1  0  0  0
 44 45  2  0  0  0
 12  2  1  0  0  0
 35 30  1  0  0  0
 27 18  1  0  0  0
 45 40  1  0  0  0
  9  3  1  0  0  0
 17 10  1  0  0  0
 27 22  1  0  0  0
 30 36  1  0  0  0
 38 39  1  0  0  0
M  CHG 1  30   1
M  END
> <minimizedAffinity>
-8.74939

> <CNNscore>
0.4398598969

> <CNNaffinity>
7.0210695267

> <CNN_VS>
3.0882868767

> <CNNaffinity_variance>
0.3276197910

$$$$



 45 51  0  0  0  0  0  0  0  0999 V2000
    7.9685   -3.5134   27.5026 O   0  0  0  0  0  0  0  0  0  0  0  0
    7.9729   -2.8681   26.1485 C   0  0  0  0  0  0  0  0  0  0  0  0
    9.2741   -2.5440   25.4763 C   0  0  0  0  0  0  0  0  0  0  0  0
   10.5709   -2.8653   26.1582 C   0  0  0  0  0  0  0  0  0  0  0  0
   11.8721   -2.5412   25.4860 C   0  0  0  0  0  0  0  0  0  0  0  0
   11.8765   -1.8959   24.1319 C   0  0  0  0  0  0  0  0  0  0  0  0
   13.3197   -1.7165   23.7641 Cl  0  0  0  0  0  0  0  0  0  0  0  0
   10.5797   -1.5746   23.4500 C   0  0  0  0  0  0  0  0  0  0  0  0
    9.2785   -1.8986   24.1222 C   0  0  0  0  0  0  0  0  0  0  0  0
    7.9816   -1.5773   23.4403 C   0  0  0  0  0  0  0  0  0  0  0  0
    6.6804   -1.9014   24.1125 C   0  0  0  0  0  0  0  0  0  0  0  0
    6.6761   -2.5468   25.4666 N   0  0  0  0  0  0  0  0  0  0  0  0
    6.7706   -1.1993   22.6399 C   0  0  0  0  0  0  0  0  0  0  0  0
    5.3427   -1.4002   23.0530 O   0  0  0  0  0  0  0  0  0  0  0  0
    7.2383   -0.5850   21.3538 N   0  0  0  0  0  0  0  0  0  0  0  0
    8.7383   -0.5834   21.3594 C   0  0  0  0  0  0  0  0  0  0  0  0
    9.1976   -1.1967   22.6489 C   0  0  0  0  0  0  0  0  0  0  0  0
    6.3601   -0.0639   20.2551 C   0  0  0  0  0  0  0  0  0  0  0  0
    6.3592   -0.7349   18.9136 C   0  0  0  0  0  0  0  0  0  0  0  0
    5.4811   -0.2137   17.8149 N   0  0  0  0  0  0  0  0  0  0  0  0
    4.6038    0.9785   18.0577 C   0  0  0  0  0  0  0  0  0  0  0  0
    4.6047    1.6495   19.3993 C   0  0  0  0  0  0  0  0  0  0  0  0
    3.7273    2.8418   19.6421 C   0  0  0  0  0  0  0  0  0  0  0  0
    3.7283    3.5128   20.9836 C   0  0  0  0  0  0  0  0  0  0  0  0
    4.6064    2.9916   22.0823 C   0  0  0  0  0  0  0  0  0  0  0  0
    5.4837    1.7994   21.8395 C   0  0  0  0  0  0  0  0  0  0  0  0
    5.4828    1.1284   20.4980 C   0  0  0  0  0  0  0  0  0  0  0  0
    5.3748   -2.8708   26.1388 C   0  0  0  0  0  0  0  0  0  0  0  0
    4.4544   -3.8918   25.5385 C   0  0  0  0  0  0  0  0  0  0  0  0
    4.9288   -5.2997   25.3320 N   0  0  0  0  0  0  0  0  0  0  0  0
    6.0306   -5.5842   24.3546 C   0  0  0  0  0  0  0  0  0  0  0  0
    6.5049   -6.9921   24.1480 C   0  0  0  0  0  0  0  0  0  0  0  0
    5.8776   -8.1156   24.9188 O   0  0  0  0  0  0  0  0  0  0  0  0
    4.7758   -7.8312   25.8961 C   0  0  0  0  0  0  0  0  0  0  0  0
    4.3014   -6.4233   26.1027 C   0  0  0  0  0  0  0  0  0  0  0  0
    5.2513   -6.2571   25.1915 H   0  0  0  0  0  0  0  0  0  0  0  0
   10.6229   -1.3946   23.0727 C   0  0  0  0  0  0  0  0  0  0  0  0
   11.3714   -0.2751   23.7333 N   0  0  0  0  0  0  0  0  0  0  0  0
   12.0377   -0.4726   24.4306 H   0  0  0  0  0  0  0  0  0  0  0  0
   11.1047    1.1452   23.3316 C   0  0  0  0  0  0  0  0  0  0  0  0
   12.1918    1.9624   22.6989 N   0  0  0  0  0  0  0  0  0  0  0  0
   11.9251    3.3828   22.2972 C   0  0  0  0  0  0  0  0  0  0  0  0
   10.5713    3.9860   22.5283 C   0  0  0  0  0  0  0  0  0  0  0  0
    9.4843    3.1688   23.1611 C   0  0  0  0  0  0  0  0  0  0  0  0
    9.7509    1.7485   23.5627 N   0  0  0  0  0  0  0  0  0  0  0  0
  1  2  2  0  0  0
  2  3  1  0  0  0
  3  4  2  0  0  0
  4  5  1  0  0  0
  5  6  2  0  0  0
  6  7  1  0  0  0
  6  8  1  0  0  0
  8  9  2  0  0  0
  9 10  1  0  0  0
 10 11  1  0  0  0
 11 12  1  0  0  0
 12 28  1  0  0  0
 28 29  1  0  0  0
 29 30  1  0  0  0
 30 31  1  0  0  0
 31 32  1  0  0  0
 32 33  1  0  0  0
 33 34  1  0  0  0
 34 35  1  0  0  0
 10 13  1  0  0  0
 13 14  2  0  0  0
 13 15  1  0  0  0
 15 18  1  0  0  0
 18 19  2  0  0  0
 19 20  1  0  0  0
 20 21  2  0  0  0
 21 22  1  0  0  0
 22 23  2  0  0  0
 23 24  1  0  0  0
 24 25  2  0  0  0
 25 26  1  0  0  0
 26 27  2  0  0  0
 15 16  1  0  0  0
 16 17  1  0  0  0
 17 37  1  0  0  0
 37 38  1  0  0  0
 38 40  1  0  0  0
 40 41  2  0  0  0
 41 42  1  0  0  0
 42 43  2  0  0  0
 43 44  1  0  0  0
 44 45  2  0  0  0
 12  2  1  0  0  0
 35 30  1  0  0  0
 27 18  1  0  0  0
 45 40  1  0  0  0
  9  3  1  0  0  0
 17 10  1  0  0  0
 27 22  1  0  0  0
 30 36  1  0  0  0
 38 39  1  0  0  0
M  CHG 1  30   1
M  END
> <minimizedAffinity>
-9.63189

> <CNNscore>
0.4213296175

> <CNNaffinity>
7.1621766090

> <CNN_VS>
3.0176370144

> <CNNaffinity_variance>
0.2848208845

$$$$



 45 51  0  0  0  0  0  0  0  0999 V2000
    7.0920   -6.5521   24.6375 O   0  0  0  0  0  0  0  0  0  0  0  0
    7.0863   -5.2353   23.9192 C   0  0  0  0  0  0  0  0  0  0  0  0
    8.0828   -4.1761   24.2869 C   0  0  0  0  0  0  0  0  0  0  0  0
    9.0849   -4.4337   25.3729 C   0  0  0  0  0  0  0  0  0  0  0  0
   10.0813   -3.3745   25.7405 C   0  0  0  0  0  0  0  0  0  0  0  0
   10.0756   -2.0577   25.0222 C   0  0  0  0  0  0  0  0  0  0  0  0
   11.1832   -1.2498   25.6310 Cl  0  0  0  0  0  0  0  0  0  0  0  0
    9.0735   -1.8001   23.9362 C   0  0  0  0  0  0  0  0  0  0  0  0
    8.0771   -2.8593   23.5685 C   0  0  0  0  0  0  0  0  0  0  0  0
    7.0749   -2.6018   22.4825 C   0  0  0  0  0  0  0  0  0  0  0  0
    6.0785   -3.6610   22.1148 C   0  0  0  0  0  0  0  0  0  0  0  0
    6.0842   -4.9778   22.8332 N   0  0  0  0  0  0  0  0  0  0  0  0
    6.1381   -2.2022   21.3813 C   0  0  0  0  0  0  0  0  0  0  0  0
    5.0425   -3.0493   20.8050 O   0  0  0  0  0  0  0  0  0  0  0  0
    6.4892   -0.8068   20.9574 N   0  0  0  0  0  0  0  0  0  0  0  0
    7.6431   -0.3440   21.7967 C   0  0  0  0  0  0  0  0  0  0  0  0
    8.0050   -1.4533   22.7392 C   0  0  0  0  0  0  0  0  0  0  0  0
    5.8064   -0.0136   19.8829 C   0  0  0  0  0  0  0  0  0  0  0  0
    6.2760   -0.1157   18.4621 C   0  0  0  0  0  0  0  0  0  0  0  0
    5.5931    0.6775   17.3876 N   0  0  0  0  0  0  0  0  0  0  0  0
    4.4407    1.5729   17.7341 C   0  0  0  0  0  0  0  0  0  0  0  0
    3.9711    1.6751   19.1551 C   0  0  0  0  0  0  0  0  0  0  0  0
    2.8186    2.5706   19.5015 C   0  0  0  0  0  0  0  0  0  0  0  0
    2.3490    2.6727   20.9225 C   0  0  0  0  0  0  0  0  0  0  0  0
    3.0319    1.8795   21.9969 C   0  0  0  0  0  0  0  0  0  0  0  0
    4.1843    0.9840   21.6504 C   0  0  0  0  0  0  0  0  0  0  0  0
    4.6539    0.8819   20.2295 C   0  0  0  0  0  0  0  0  0  0  0  0
    5.0877   -6.0370   22.4655 C   0  0  0  0  0  0  0  0  0  0  0  0
    3.8286   -6.1924   23.2657 C   0  0  0  0  0  0  0  0  0  0  0  0
    3.9049   -6.5005   24.7316 N   0  0  0  0  0  0  0  0  0  0  0  0
    3.8817   -5.3854   25.7347 C   0  0  0  0  0  0  0  0  0  0  0  0
    3.9579   -5.6935   27.2007 C   0  0  0  0  0  0  0  0  0  0  0  0
    4.0574   -7.1168   27.6637 O   0  0  0  0  0  0  0  0  0  0  0  0
    4.0806   -8.2319   26.6608 C   0  0  0  0  0  0  0  0  0  0  0  0
    4.0043   -7.9238   25.1947 C   0  0  0  0  0  0  0  0  0  0  0  0
    3.9567   -6.7100   25.7285 H   0  0  0  0  0  0  0  0  0  0  0  0
    9.1042   -1.4200   23.7594 C   0  0  0  0  0  0  0  0  0  0  0  0
    9.0656   -0.4138   24.8712 N   0  0  0  0  0  0  0  0  0  0  0  0
    9.6974   -0.4861   25.6227 H   0  0  0  0  0  0  0  0  0  0  0  0
    8.0644    0.7026   24.8379 C   0  0  0  0  0  0  0  0  0  0  0  0
    6.7318    0.5351   25.5060 N   0  0  0  0  0  0  0  0  0  0  0  0
    5.7306    1.6515   25.4728 C   0  0  0  0  0  0  0  0  0  0  0  0
    6.0619    2.9354   24.7715 C   0  0  0  0  0  0  0  0  0  0  0  0
    7.3944    3.1029   24.1035 C   0  0  0  0  0  0  0  0  0  0  0  0
    8.3956    1.9866   24.1367 N   0  0  0  0  0  0  0  0  0  0  0  0
  1  2  2  0  0  0
  2  3  1  0  0  0
  3  4  2  0  0  0
  4  5  1  0  0  0
  5  6  2  0  0  0
  6  7  1  0  0  0
  6  8  1  0  0  0
  8  9  2  0  0  0
  9 10  1  0  0  0
 10 11  1  0  0  0
 11 12  1  0  0  0
 12 28  1  0  0  0
 28 29  1  0  0  0
 29 30  1  0  0  0
 30 31  1  0  0  0
 31 32  1  0  0  0
 32 33  1  0  0  0
 33 34  1  0  0  0
 34 35  1  0  0  0
 10 13  1  0  0  0
 13 14  2  0  0  0
 13 15  1  0  0  0
 15 18  1  0  0  0
 18 19  2  0  0  0
 19 20  1  0  0  0
 20 21  2  0  0  0
 21 22  1  0  0  0
 22 23  2  0  0  0
 23 24  1  0  0  0
 24 25  2  0  0  0
 25 26  1  0  0  0
 26 27  2  0  0  0
 15 16  1  0  0  0
 16 17  1  0  0  0
 17 37  1  0  0  0
 37 38  1  0  0  0
 38 40  1  0  0  0
 40 41  2  0  0  0
 41 42  1  0  0  0
 42 43  2  0  0  0
 43 44  1  0  0  0
 44 45  2  0  0  0
 12  2  1  0  0  0
 35 30  1  0  0  0
 27 18  1  0  0  0
 45 40  1  0  0  0
  9  3  1  0  0  0
 17 10  1  0  0  0
 27 22  1  0  0  0
 30 36  1  0  0  0
 38 39  1  0  0  0
M  CHG 1  30   1
M  END
> <minimizedAffinity>
-7.96474

> <CNNscore>
0.3990735412

> <CNNaffinity>
6.7566704750

> <CNN_VS>
2.6964085102

> <CNNaffinity_variance>
0.3599080443

$$$$



 45 51  0  0  0  0  0  0  0  0999 V2000
    7.0880    4.0012   22.3484 O   0  0  0  0  0  0  0  0  0  0  0  0
    7.3206    2.5400   22.5950 C   0  0  0  0  0  0  0  0  0  0  0  0
    8.7203    2.0072   22.6799 C   0  0  0  0  0  0  0  0  0  0  0  0
    9.8873    2.9357   22.5180 C   0  0  0  0  0  0  0  0  0  0  0  0
   11.2869    2.4029   22.6028 C   0  0  0  0  0  0  0  0  0  0  0  0
   11.5195    0.9417   22.8495 C   0  0  0  0  0  0  0  0  0  0  0  0
   13.0082    0.7586   22.8747 Cl  0  0  0  0  0  0  0  0  0  0  0  0
   10.3526    0.0133   23.0114 C   0  0  0  0  0  0  0  0  0  0  0  0
    8.9530    0.5461   22.9265 C   0  0  0  0  0  0  0  0  0  0  0  0
    7.7859   -0.3823   23.0884 C   0  0  0  0  0  0  0  0  0  0  0  0
    6.3864    0.1504   23.0036 C   0  0  0  0  0  0  0  0  0  0  0  0
    6.1537    1.6116   22.7569 N   0  0  0  0  0  0  0  0  0  0  0  0
    6.7239   -1.4260   23.2694 C   0  0  0  0  0  0  0  0  0  0  0  0
    5.2427   -1.1918   23.2355 O   0  0  0  0  0  0  0  0  0  0  0  0
    7.4031   -2.7451   23.4903 N   0  0  0  0  0  0  0  0  0  0  0  0
    8.8849   -2.5167   23.4458 C   0  0  0  0  0  0  0  0  0  0  0  0
    9.1215   -1.0564   23.1974 C   0  0  0  0  0  0  0  0  0  0  0  0
    6.7202   -4.0615   23.7160 C   0  0  0  0  0  0  0  0  0  0  0  0
    6.7579   -5.1180   22.6520 C   0  0  0  0  0  0  0  0  0  0  0  0
    6.0750   -6.4344   22.8777 N   0  0  0  0  0  0  0  0  0  0  0  0
    5.3546   -6.6941   24.1674 C   0  0  0  0  0  0  0  0  0  0  0  0
    5.3170   -5.6375   25.2315 C   0  0  0  0  0  0  0  0  0  0  0  0
    4.5966   -5.8973   26.5213 C   0  0  0  0  0  0  0  0  0  0  0  0
    4.5590   -4.8406   27.5853 C   0  0  0  0  0  0  0  0  0  0  0  0
    5.2418   -3.5243   27.3595 C   0  0  0  0  0  0  0  0  0  0  0  0
    5.9622   -3.2646   26.0698 C   0  0  0  0  0  0  0  0  0  0  0  0
    5.9998   -4.3211   25.0058 C   0  0  0  0  0  0  0  0  0  0  0  0
    4.7540    2.1443   22.6721 C   0  0  0  0  0  0  0  0  0  0  0  0
    4.0538    2.2055   21.3470 C   0  0  0  0  0  0  0  0  0  0  0  0
    4.6647    1.5484   20.1449 N   0  0  0  0  0  0  0  0  0  0  0  0
    4.0533    1.7471   18.7896 C   0  0  0  0  0  0  0  0  0  0  0  0
    4.6643    1.0901   17.5876 C   0  0  0  0  0  0  0  0  0  0  0  0
    5.8866    0.2343   17.7407 O   0  0  0  0  0  0  0  0  0  0  0  0
    6.4980    0.0355   19.0959 C   0  0  0  0  0  0  0  0  0  0  0  0
    5.8871    0.6926   20.2981 C   0  0  0  0  0  0  0  0  0  0  0  0
    5.0802    1.1016   19.3275 H   0  0  0  0  0  0  0  0  0  0  0  0
   10.4589   -0.3877   23.0789 C   0  0  0  0  0  0  0  0  0  0  0  0
   11.2648   -0.0985   24.3105 N   0  0  0  0  0  0  0  0  0  0  0  0
   11.4299    0.8329   24.5834 H   0  0  0  0  0  0  0  0  0  0  0  0
   11.8193   -1.2284   25.1265 C   0  0  0  0  0  0  0  0  0  0  0  0
   13.2969   -1.3267   25.3651 N   0  0  0  0  0  0  0  0  0  0  0  0
   13.8513   -2.4566   26.1811 C   0  0  0  0  0  0  0  0  0  0  0  0
   12.9282   -3.4882   26.7585 C   0  0  0  0  0  0  0  0  0  0  0  0
   11.4505   -3.3899   26.5200 C   0  0  0  0  0  0  0  0  0  0  0  0
   10.8961   -2.2601   25.7040 N   0  0  0  0  0  0  0  0  0  0  0  0
  1  2  2  0  0  0
  2  3  1  0  0  0
  3  4  2  0  0  0
  4  5  1  0  0  0
  5  6  2  0  0  0
  6  7  1  0  0  0
  6  8  1  0  0  0
  8  9  2  0  0  0
  9 10  1  0  0  0
 10 11  1  0  0  0
 11 12  1  0  0  0
 12 28  1  0  0  0
 28 29  1  0  0  0
 29 30  1  0  0  0
 30 31  1  0  0  0
 31 32  1  0  0  0
 32 33  1  0  0  0
 33 34  1  0  0  0
 34 35  1  0  0  0
 10 13  1  0  0  0
 13 14  2  0  0  0
 13 15  1  0  0  0
 15 18  1  0  0  0
 18 19  2  0  0  0
 19 20  1  0  0  0
 20 21  2  0  0  0
 21 22  1  0  0  0
 22 23  2  0  0  0
 23 24  1  0  0  0
 24 25  2  0  0  0
 25 26  1  0  0  0
 26 27  2  0  0  0
 15 16  1  0  0  0
 16 17  1  0  0  0
 17 37  1  0  0  0
 37 38  1  0  0  0
 38 40  1  0  0  0
 40 41  2  0  0  0
 41 42  1  0  0  0
 42 43  2  0  0  0
 43 44  1  0  0  0
 44 45  2  0  0  0
 12  2  1  0  0  0
 35 30  1  0  0  0
 27 18  1  0  0  0
 45 40  1  0  0  0
  9  3  1  0  0  0
 17 10  1  0  0  0
 27 22  1  0  0  0
 30 36  1  0  0  0
 38 39  1  0  0  0
M  CHG 1  30   1
M  END
> <minimizedAffinity>
-9.25119

> <CNNscore>
0.3917408586

> <CNNaffinity>
7.1422715187

> <CNN_VS>
2.7979195118

> <CNNaffinity_variance>
0.5657314062

$$$$



 45 51  0  0  0  0  0  0  0  0999 V2000
    7.8314   -3.4655   27.4435 O   0  0  0  0  0  0  0  0  0  0  0  0
    7.8574   -2.8362   26.0821 C   0  0  0  0  0  0  0  0  0  0  0  0
    9.1693   -2.5390   25.4182 C   0  0  0  0  0  0  0  0  0  0  0  0
   10.4551   -2.8712   26.1156 C   0  0  0  0  0  0  0  0  0  0  0  0
   11.7669   -2.5740   25.4516 C   0  0  0  0  0  0  0  0  0  0  0  0
   11.7929   -1.9447   24.0903 C   0  0  0  0  0  0  0  0  0  0  0  0
   13.2418   -1.7906   23.7336 Cl  0  0  0  0  0  0  0  0  0  0  0  0
   10.5071   -1.6125   23.3929 C   0  0  0  0  0  0  0  0  0  0  0  0
    9.1953   -1.9096   24.0568 C   0  0  0  0  0  0  0  0  0  0  0  0
    7.9094   -1.5774   23.3595 C   0  0  0  0  0  0  0  0  0  0  0  0
    6.5977   -1.8746   24.0234 C   0  0  0  0  0  0  0  0  0  0  0  0
    6.5717   -2.5040   25.3848 N   0  0  0  0  0  0  0  0  0  0  0  0
    6.7114   -1.1911   22.5437 C   0  0  0  0  0  0  0  0  0  0  0  0
    5.2770   -1.3664   22.9460 O   0  0  0  0  0  0  0  0  0  0  0  0
    7.1996   -0.5988   21.2549 N   0  0  0  0  0  0  0  0  0  0  0  0
    8.6993   -0.6190   21.2742 C   0  0  0  0  0  0  0  0  0  0  0  0
    9.1380   -1.2239   22.5749 C   0  0  0  0  0  0  0  0  0  0  0  0
    6.3390   -0.0778   20.1423 C   0  0  0  0  0  0  0  0  0  0  0  0
    6.3911   -0.7226   18.7890 C   0  0  0  0  0  0  0  0  0  0  0  0
    5.5306   -0.2015   17.6763 N   0  0  0  0  0  0  0  0  0  0  0  0
    4.6180    0.9643   17.9170 C   0  0  0  0  0  0  0  0  0  0  0  0
    4.5659    1.6091   19.2704 C   0  0  0  0  0  0  0  0  0  0  0  0
    3.6533    2.7750   19.5111 C   0  0  0  0  0  0  0  0  0  0  0  0
    3.6013    3.4198   20.8644 C   0  0  0  0  0  0  0  0  0  0  0  0
    4.4618    2.8987   21.9770 C   0  0  0  0  0  0  0  0  0  0  0  0
    5.3744    1.7329   21.7363 C   0  0  0  0  0  0  0  0  0  0  0  0
    5.4265    1.0881   20.3830 C   0  0  0  0  0  0  0  0  0  0  0  0
    5.2598   -2.8011   26.0487 C   0  0  0  0  0  0  0  0  0  0  0  0
    4.6561   -1.8066   26.9955 C   0  0  0  0  0  0  0  0  0  0  0  0
    5.3949   -0.5445   27.3290 N   0  0  0  0  0  0  0  0  0  0  0  0
    6.0430    0.2557   26.2382 C   0  0  0  0  0  0  0  0  0  0  0  0
    6.7818    1.5178   26.5717 C   0  0  0  0  0  0  0  0  0  0  0  0
    6.8726    1.9797   27.9960 O   0  0  0  0  0  0  0  0  0  0  0  0
    6.2246    1.1795   29.0867 C   0  0  0  0  0  0  0  0  0  0  0  0
    5.4857   -0.0826   28.7532 C   0  0  0  0  0  0  0  0  0  0  0  0
    5.8973    0.3137   27.5558 H   0  0  0  0  0  0  0  0  0  0  0  0
   10.5563   -1.4376   23.0139 C   0  0  0  0  0  0  0  0  0  0  0  0
   11.2840   -0.3542   23.7534 N   0  0  0  0  0  0  0  0  0  0  0  0
   11.8884   -0.5852   24.4954 H   0  0  0  0  0  0  0  0  0  0  0  0
   11.0908    1.0809   23.3624 C   0  0  0  0  0  0  0  0  0  0  0  0
    9.7714    1.7526   23.6027 N   0  0  0  0  0  0  0  0  0  0  0  0
    9.5782    3.1879   23.2117 C   0  0  0  0  0  0  0  0  0  0  0  0
   10.7046    3.9514   22.5805 C   0  0  0  0  0  0  0  0  0  0  0  0
   12.0240    3.2796   22.3403 C   0  0  0  0  0  0  0  0  0  0  0  0
   12.2172    1.8445   22.7312 N   0  0  0  0  0  0  0  0  0  0  0  0
  1  2  2  0  0  0
  2  3  1  0  0  0
  3  4  2  0  0  0
  4  5  1  0  0  0
  5  6  2  0  0  0
  6  7  1  0  0  0
  6  8  1  0  0  0
  8  9  2  0  0  0
  9 10  1  0  0  0
 10 11  1  0  0  0
 11 12  1  0  0  0
 12 28  1  0  0  0
 28 29  1  0  0  0
 29 30  1  0  0  0
 30 31  1  0  0  0
 31 32  1  0  0  0
 32 33  1  0  0  0
 33 34  1  0  0  0
 34 35  1  0  0  0
 10 13  1  0  0  0
 13 14  2  0  0  0
 13 15  1  0  0  0
 15 18  1  0  0  0
 18 19  2  0  0  0
 19 20  1  0  0  0
 20 21  2  0  0  0
 21 22  1  0  0  0
 22 23  2  0  0  0
 23 24  1  0  0  0
 24 25  2  0  0  0
 25 26  1  0  0  0
 26 27  2  0  0  0
 15 16  1  0  0  0
 16 17  1  0  0  0
 17 37  1  0  0  0
 37 38  1  0  0  0
 38 40  1  0  0  0
 40 41  2  0  0  0
 41 42  1  0  0  0
 42 43  2  0  0  0
 43 44  1  0  0  0
 44 45  2  0  0  0
 12  2  1  0  0  0
 35 30  1  0  0  0
 27 18  1  0  0  0
 45 40  1  0  0  0
  9  3  1  0  0  0
 17 10  1  0  0  0
 27 22  1  0  0  0
 30 36  1  0  0  0
 38 39  1  0  0  0
M  CHG 1  30   1
M  END
> <minimizedAffinity>
-8.91156

> <CNNscore>
0.3775410950

> <CNNaffinity>
6.8262434006

> <CNN_VS>
2.5771872997

> <CNNaffinity_variance>
0.7964184880

$$$$
