


 45 51  0  0  0  0  0  0  0  0999 V2000
   -7.7235   -3.2672  -22.6842 O   0  0  0  0  0  0  0  0  0  0  0  0
   -8.2009   -1.8740  -22.9691 C   0  0  0  0  0  0  0  0  0  0  0  0
   -9.6709   -1.5775  -23.0047 C   0  0  0  0  0  0  0  0  0  0  0  0
  -10.6635   -2.6741  -22.7552 C   0  0  0  0  0  0  0  0  0  0  0  0
  -12.1334   -2.3775  -22.7908 C   0  0  0  0  0  0  0  0  0  0  0  0
  -12.6108   -0.9843  -23.0757 C   0  0  0  0  0  0  0  0  0  0  0  0
  -14.1091   -1.0444  -23.0356 Cl  0  0  0  0  0  0  0  0  0  0  0  0
  -11.6182    0.1123  -23.3251 C   0  0  0  0  0  0  0  0  0  0  0  0
  -10.1483   -0.1843  -23.2896 C   0  0  0  0  0  0  0  0  0  0  0  0
   -9.1556    0.9123  -23.5390 C   0  0  0  0  0  0  0  0  0  0  0  0
   -7.6857    0.6158  -23.5035 C   0  0  0  0  0  0  0  0  0  0  0  0
   -7.2083   -0.7774  -23.2185 N   0  0  0  0  0  0  0  0  0  0  0  0
   -8.2860    2.1049  -23.8064 C   0  0  0  0  0  0  0  0  0  0  0  0
   -6.7863    2.1137  -23.8358 O   0  0  0  0  0  0  0  0  0  0  0  0
   -9.1793    3.2872  -24.0392 N   0  0  0  0  0  0  0  0  0  0  0  0
  -10.6011    2.8253  -23.9158 C   0  0  0  0  0  0  0  0  0  0  0  0
  -10.5864    1.3576  -23.6066 C   0  0  0  0  0  0  0  0  0  0  0  0
   -8.7298    4.6858  -24.3424 C   0  0  0  0  0  0  0  0  0  0  0  0
   -7.7933    5.3918  -23.4073 C   0  0  0  0  0  0  0  0  0  0  0  0
   -7.3438    6.7904  -23.7104 N   0  0  0  0  0  0  0  0  0  0  0  0
   -7.8308    7.4829  -24.9486 C   0  0  0  0  0  0  0  0  0  0  0  0
   -8.7674    6.7768  -25.8837 C   0  0  0  0  0  0  0  0  0  0  0  0
   -9.2545    7.4695  -27.1220 C   0  0  0  0  0  0  0  0  0  0  0  0
  -10.1910    6.7633  -28.0570 C   0  0  0  0  0  0  0  0  0  0  0  0
  -10.6405    5.3648  -27.7538 C   0  0  0  0  0  0  0  0  0  0  0  0
  -10.1534    4.6723  -26.5156 C   0  0  0  0  0  0  0  0  0  0  0  0
   -9.2169    5.3783  -25.5806 C   0  0  0  0  0  0  0  0  0  0  0  0
   -5.7383   -1.0740  -23.1830 C   0  0  0  0  0  0  0  0  0  0  0  0
   -4.8589   -0.3881  -22.1800 C   0  0  0  0  0  0  0  0  0  0  0  0
   -5.0803   -0.6094  -20.7130 N   0  0  0  0  0  0  0  0  0  0  0  0
   -5.5832   -1.9346  -20.2219 C   0  0  0  0  0  0  0  0  0  0  0  0
   -5.8046   -2.1559  -18.7550 C   0  0  0  0  0  0  0  0  0  0  0  0
   -5.5231   -1.0521  -17.7791 O   0  0  0  0  0  0  0  0  0  0  0  0
   -5.0202    0.2730  -18.2701 C   0  0  0  0  0  0  0  0  0  0  0  0
   -4.7987    0.4944  -19.7371 C   0  0  0  0  0  0  0  0  0  0  0  0
   -5.2308   -0.7599  -19.7155 H   0  0  0  0  0  0  0  0  0  0  0  0
  -11.7911    0.4878  -23.4011 C   0  0  0  0  0  0  0  0  0  0  0  0
  -13.1623    1.0958  -23.3903 N   0  0  0  0  0  0  0  0  0  0  0  0
  -13.9578    0.5159  -23.3762 H   0  0  0  0  0  0  0  0  0  0  0  0
  -13.3216    2.5872  -23.4012 C   0  0  0  0  0  0  0  0  0  0  0  0
  -13.4029    3.3233  -24.7055 N   0  0  0  0  0  0  0  0  0  0  0  0
  -13.5622    4.8148  -24.7163 C   0  0  0  0  0  0  0  0  0  0  0  0
  -13.6401    5.5702  -23.4228 C   0  0  0  0  0  0  0  0  0  0  0  0
  -13.5588    4.8340  -22.1184 C   0  0  0  0  0  0  0  0  0  0  0  0
  -13.3995    3.3426  -22.1075 N   0  0  0  0  0  0  0  0  0  0  0  0
  1  2  2  0  0  0
  2  3  1  0  0  0
  3  4  2  0  0  0
  4  5  1  0  0  0
  5  6  2  0  0  0
  6  7  1  0  0  0
  6  8  1  0  0  0
  8  9  2  0  0  0
  9 10  1  0  0  0
 10 11  1  0  0  0
 11 12  1  0  0  0
 12 28  1  0  0  0
 28 29  1  0  0  0
 29 30  1  0  0  0
 30 31  1  0  0  0
 31 32  1  0  0  0
 32 33  1  0  0  0
 33 34  1  0  0  0
 34 35  1  0  0  0
 10 13  1  0  0  0
 13 14  2  0  0  0
 13 15  1  0  0  0
 15 18  1  0  0  0
 18 19  2  0  0  0
 19 20  1  0  0  0
 20 21  2  0  0  0
 21 22  1  0  0  0
 22 23  2  0  0  0
 23 24  1  0  0  0
 24 25  2  0  0  0
 25 26  1  0  0  0
 26 27  2  0  0  0
 15 16  1  0  0  0
 16 17  1  0  0  0
 17 37  1  0  0  0
 37 38  1  0  0  0
 38 40  1  0  0  0
 40 41  2  0  0  0
 41 42  1  0  0  0
 42 43  2  0  0  0
 43 44  1  0  0  0
 44 45  2  0  0  0
 12  2  1  0  0  0
 35 30  1  0  0  0
 27 18  1  0  0  0
 45 40  1  0  0  0
  9  3  1  0  0  0
 17 10  1  0  0  0
 27 22  1  0  0  0
 30 36  1  0  0  0
 38 39  1  0  0  0
M  CHG 1  30   1
M  END
> <minimizedAffinity>
-9.05066

> <CNNscore>
0.6871611476

> <CNNaffinity>
7.2737855911

> <CNN_VS>
4.9982628822

> <CNNaffinity_variance>
0.3512907624

$$$$



 45 51  0  0  0  0  0  0  0  0999 V2000
   -7.9149   -3.4248  -22.6011 O   0  0  0  0  0  0  0  0  0  0  0  0
   -8.3343   -2.0498  -23.0293 C   0  0  0  0  0  0  0  0  0  0  0  0
   -9.7896   -1.6880  -23.0696 C   0  0  0  0  0  0  0  0  0  0  0  0
  -10.8253   -2.7013  -22.6817 C   0  0  0  0  0  0  0  0  0  0  0  0
  -12.2804   -2.3396  -22.7220 C   0  0  0  0  0  0  0  0  0  0  0  0
  -12.6998   -0.9645  -23.1501 C   0  0  0  0  0  0  0  0  0  0  0  0
  -14.1980   -0.9472  -23.0752 Cl  0  0  0  0  0  0  0  0  0  0  0  0
  -11.6641    0.0488  -23.5380 C   0  0  0  0  0  0  0  0  0  0  0  0
  -10.2090   -0.3130  -23.4977 C   0  0  0  0  0  0  0  0  0  0  0  0
   -9.1732    0.7003  -23.8856 C   0  0  0  0  0  0  0  0  0  0  0  0
   -7.7181    0.3386  -23.8453 C   0  0  0  0  0  0  0  0  0  0  0  0
   -7.2986   -1.0365  -23.4172 N   0  0  0  0  0  0  0  0  0  0  0  0
   -8.2563    1.8129  -24.2996 C   0  0  0  0  0  0  0  0  0  0  0  0
   -6.7589    1.7458  -24.3582 O   0  0  0  0  0  0  0  0  0  0  0  0
   -9.0996    3.0044  -24.6448 N   0  0  0  0  0  0  0  0  0  0  0  0
  -10.5377    2.6283  -24.4441 C   0  0  0  0  0  0  0  0  0  0  0  0
  -10.5832    1.2043  -23.9749 C   0  0  0  0  0  0  0  0  0  0  0  0
   -8.5936    4.3380  -25.1092 C   0  0  0  0  0  0  0  0  0  0  0  0
   -8.8073    4.7678  -26.5302 C   0  0  0  0  0  0  0  0  0  0  0  0
   -8.3012    6.1014  -26.9945 N   0  0  0  0  0  0  0  0  0  0  0  0
   -7.5815    7.0050  -26.0378 C   0  0  0  0  0  0  0  0  0  0  0  0
   -7.3678    6.5751  -24.6166 C   0  0  0  0  0  0  0  0  0  0  0  0
   -6.6481    7.4788  -23.6598 C   0  0  0  0  0  0  0  0  0  0  0  0
   -6.4345    7.0488  -22.2388 C   0  0  0  0  0  0  0  0  0  0  0  0
   -6.9405    5.7153  -21.7745 C   0  0  0  0  0  0  0  0  0  0  0  0
   -7.6602    4.8117  -22.7313 C   0  0  0  0  0  0  0  0  0  0  0  0
   -7.8739    5.2416  -24.1523 C   0  0  0  0  0  0  0  0  0  0  0  0
   -5.8434   -1.3982  -23.3769 C   0  0  0  0  0  0  0  0  0  0  0  0
   -4.9160   -0.6739  -22.4467 C   0  0  0  0  0  0  0  0  0  0  0  0
   -5.1134   -0.7734  -20.9631 N   0  0  0  0  0  0  0  0  0  0  0  0
   -5.6215   -2.0484  -20.3579 C   0  0  0  0  0  0  0  0  0  0  0  0
   -5.8189   -2.1479  -18.8743 C   0  0  0  0  0  0  0  0  0  0  0  0
   -5.5082   -0.9724  -17.9958 O   0  0  0  0  0  0  0  0  0  0  0  0
   -5.0001    0.3025  -18.6010 C   0  0  0  0  0  0  0  0  0  0  0  0
   -4.8027    0.4021  -20.0847 C   0  0  0  0  0  0  0  0  0  0  0  0
   -5.2476   -0.8410  -19.9543 H   0  0  0  0  0  0  0  0  0  0  0  0
  -11.8213    0.4216  -23.6518 C   0  0  0  0  0  0  0  0  0  0  0  0
  -13.1655    1.0845  -23.7144 N   0  0  0  0  0  0  0  0  0  0  0  0
  -13.9713    0.5475  -23.8920 H   0  0  0  0  0  0  0  0  0  0  0  0
  -13.2819    2.5653  -23.5064 C   0  0  0  0  0  0  0  0  0  0  0  0
  -13.2394    3.1334  -22.1188 N   0  0  0  0  0  0  0  0  0  0  0  0
  -13.3558    4.6144  -21.9108 C   0  0  0  0  0  0  0  0  0  0  0  0
  -13.5149    5.5272  -23.0904 C   0  0  0  0  0  0  0  0  0  0  0  0
  -13.5574    4.9591  -24.4780 C   0  0  0  0  0  0  0  0  0  0  0  0
  -13.4409    3.4782  -24.6860 N   0  0  0  0  0  0  0  0  0  0  0  0
  1  2  2  0  0  0
  2  3  1  0  0  0
  3  4  2  0  0  0
  4  5  1  0  0  0
  5  6  2  0  0  0
  6  7  1  0  0  0
  6  8  1  0  0  0
  8  9  2  0  0  0
  9 10  1  0  0  0
 10 11  1  0  0  0
 11 12  1  0  0  0
 12 28  1  0  0  0
 28 29  1  0  0  0
 29 30  1  0  0  0
 30 31  1  0  0  0
 31 32  1  0  0  0
 32 33  1  0  0  0
 33 34  1  0  0  0
 34 35  1  0  0  0
 10 13  1  0  0  0
 13 14  2  0  0  0
 13 15  1  0  0  0
 15 18  1  0  0  0
 18 19  2  0  0  0
 19 20  1  0  0  0
 20 21  2  0  0  0
 21 22  1  0  0  0
 22 23  2  0  0  0
 23 24  1  0  0  0
 24 25  2  0  0  0
 25 26  1  0  0  0
 26 27  2  0  0  0
 15 16  1  0  0  0
 16 17  1  0  0  0
 17 37  1  0  0  0
 37 38  1  0  0  0
 38 40  1  0  0  0
 40 41  2  0  0  0
 41 42  1  0  0  0
 42 43  2  0  0  0
 43 44  1  0  0  0
 44 45  2  0  0  0
 12  2  1  0  0  0
 35 30  1  0  0  0
 27 18  1  0  0  0
 45 40  1  0  0  0
  9  3  1  0  0  0
 17 10  1  0  0  0
 27 22  1  0  0  0
 30 36  1  0  0  0
 38 39  1  0  0  0
M  CHG 1  30   1
M  END
> <minimizedAffinity>
-9.12110

> <CNNscore>
0.5536869168

> <CNNaffinity>
7.0406341553

> <CNN_VS>
3.8983070850

> <CNNaffinity_variance>
0.5139886141

$$$$



 45 51  0  0  0  0  0  0  0  0999 V2000
   -3.2574    4.8295  -22.2309 O   0  0  0  0  0  0  0  0  0  0  0  0
   -4.5409    4.1316  -22.5707 C   0  0  0  0  0  0  0  0  0  0  0  0
   -5.6712    4.8996  -23.1894 C   0  0  0  0  0  0  0  0  0  0  0  0
   -5.5180    6.3654  -23.4682 C   0  0  0  0  0  0  0  0  0  0  0  0
   -6.6482    7.1333  -24.0869 C   0  0  0  0  0  0  0  0  0  0  0  0
   -7.9318    6.4354  -24.4267 C   0  0  0  0  0  0  0  0  0  0  0  0
   -8.8278    7.4829  -25.0185 Cl  0  0  0  0  0  0  0  0  0  0  0  0
   -8.0850    4.9696  -24.1478 C   0  0  0  0  0  0  0  0  0  0  0  0
   -6.9548    4.2017  -23.5291 C   0  0  0  0  0  0  0  0  0  0  0  0
   -7.1080    2.7358  -23.2502 C   0  0  0  0  0  0  0  0  0  0  0  0
   -5.9778    1.9679  -22.6316 C   0  0  0  0  0  0  0  0  0  0  0  0
   -4.6942    2.6658  -22.2918 N   0  0  0  0  0  0  0  0  0  0  0  0
   -7.4061    1.2822  -23.0307 C   0  0  0  0  0  0  0  0  0  0  0  0
   -6.4730    0.2713  -22.4329 O   0  0  0  0  0  0  0  0  0  0  0  0
   -8.8012    1.0169  -23.5140 N   0  0  0  0  0  0  0  0  0  0  0  0
   -9.3652    2.3066  -24.0322 C   0  0  0  0  0  0  0  0  0  0  0  0
   -8.3188    3.3689  -23.8692 C   0  0  0  0  0  0  0  0  0  0  0  0
   -9.5080   -0.3057  -23.4843 C   0  0  0  0  0  0  0  0  0  0  0  0
   -8.7202   -1.5792  -23.5705 C   0  0  0  0  0  0  0  0  0  0  0  0
   -9.4270   -2.9019  -23.5408 N   0  0  0  0  0  0  0  0  0  0  0  0
  -10.9217   -2.9510  -23.4249 C   0  0  0  0  0  0  0  0  0  0  0  0
  -11.7095   -1.6775  -23.3386 C   0  0  0  0  0  0  0  0  0  0  0  0
  -13.2043   -1.7267  -23.2227 C   0  0  0  0  0  0  0  0  0  0  0  0
  -13.9921   -0.4531  -23.1364 C   0  0  0  0  0  0  0  0  0  0  0  0
  -13.2852    0.8695  -23.1662 C   0  0  0  0  0  0  0  0  0  0  0  0
  -11.7905    0.9186  -23.2821 C   0  0  0  0  0  0  0  0  0  0  0  0
  -11.0027   -0.3548  -23.3683 C   0  0  0  0  0  0  0  0  0  0  0  0
   -3.5639    1.8978  -21.6731 C   0  0  0  0  0  0  0  0  0  0  0  0
   -3.6754    0.4127  -21.4945 C   0  0  0  0  0  0  0  0  0  0  0  0
   -4.4074   -0.1474  -20.3111 N   0  0  0  0  0  0  0  0  0  0  0  0
   -5.0117   -1.5185  -20.3832 C   0  0  0  0  0  0  0  0  0  0  0  0
   -5.7436   -2.0787  -19.1998 C   0  0  0  0  0  0  0  0  0  0  0  0
   -5.8714   -1.2678  -17.9443 O   0  0  0  0  0  0  0  0  0  0  0  0
   -5.2672    0.1032  -17.8722 C   0  0  0  0  0  0  0  0  0  0  0  0
   -4.5352    0.6634  -19.0557 C   0  0  0  0  0  0  0  0  0  0  0  0
   -4.9052   -0.5283  -19.5064 H   0  0  0  0  0  0  0  0  0  0  0  0
   -8.4587    4.8111  -24.2570 C   0  0  0  0  0  0  0  0  0  0  0  0
   -9.5999    5.6245  -23.7221 N   0  0  0  0  0  0  0  0  0  0  0  0
   -9.4218    6.4576  -23.2287 H   0  0  0  0  0  0  0  0  0  0  0  0
  -11.0123    5.1687  -23.9390 C   0  0  0  0  0  0  0  0  0  0  0  0
  -11.5293    4.9656  -25.3324 N   0  0  0  0  0  0  0  0  0  0  0  0
  -12.9418    4.5098  -25.5492 C   0  0  0  0  0  0  0  0  0  0  0  0
  -13.8373    4.2570  -24.3727 C   0  0  0  0  0  0  0  0  0  0  0  0
  -13.3203    4.4600  -22.9794 C   0  0  0  0  0  0  0  0  0  0  0  0
  -11.9079    4.9158  -22.7625 N   0  0  0  0  0  0  0  0  0  0  0  0
  1  2  2  0  0  0
  2  3  1  0  0  0
  3  4  2  0  0  0
  4  5  1  0  0  0
  5  6  2  0  0  0
  6  7  1  0  0  0
  6  8  1  0  0  0
  8  9  2  0  0  0
  9 10  1  0  0  0
 10 11  1  0  0  0
 11 12  1  0  0  0
 12 28  1  0  0  0
 28 29  1  0  0  0
 29 30  1  0  0  0
 30 31  1  0  0  0
 31 32  1  0  0  0
 32 33  1  0  0  0
 33 34  1  0  0  0
 34 35  1  0  0  0
 10 13  1  0  0  0
 13 14  2  0  0  0
 13 15  1  0  0  0
 15 18  1  0  0  0
 18 19  2  0  0  0
 19 20  1  0  0  0
 20 21  2  0  0  0
 21 22  1  0  0  0
 22 23  2  0  0  0
 23 24  1  0  0  0
 24 25  2  0  0  0
 25 26  1  0  0  0
 26 27  2  0  0  0
 15 16  1  0  0  0
 16 17  1  0  0  0
 17 37  1  0  0  0
 37 38  1  0  0  0
 38 40  1  0  0  0
 40 41  2  0  0  0
 41 42  1  0  0  0
 42 43  2  0  0  0
 43 44  1  0  0  0
 44 45  2  0  0  0
 12  2  1  0  0  0
 35 30  1  0  0  0
 27 18  1  0  0  0
 45 40  1  0  0  0
  9  3  1  0  0  0
 17 10  1  0  0  0
 27 22  1  0  0  0
 30 36  1  0  0  0
 38 39  1  0  0  0
M  CHG 1  30   1
M  END
> <minimizedAffinity>
-8.40824

> <CNNscore>
0.2827225626

> <CNNaffinity>
6.6597633362

> <CNN_VS>
1.8828653097

> <CNNaffinity_variance>
0.3340347111

$$$$



 45 51  0  0  0  0  0  0  0  0999 V2000
   -5.2033   -3.7171  -20.5914 O   0  0  0  0  0  0  0  0  0  0  0  0
   -6.0306   -2.7275  -21.3570 C   0  0  0  0  0  0  0  0  0  0  0  0
   -6.9427   -3.1991  -22.4504 C   0  0  0  0  0  0  0  0  0  0  0  0
   -7.0275   -4.6603  -22.7783 C   0  0  0  0  0  0  0  0  0  0  0  0
   -7.9396   -5.1319  -23.8717 C   0  0  0  0  0  0  0  0  0  0  0  0
   -8.7669   -4.1423  -24.6373 C   0  0  0  0  0  0  0  0  0  0  0  0
   -9.5483   -4.9423  -25.6372 Cl  0  0  0  0  0  0  0  0  0  0  0  0
   -8.6822   -2.6810  -24.3094 C   0  0  0  0  0  0  0  0  0  0  0  0
   -7.7701   -2.2094  -23.2160 C   0  0  0  0  0  0  0  0  0  0  0  0
   -7.6853   -0.7481  -22.8881 C   0  0  0  0  0  0  0  0  0  0  0  0
   -6.7731   -0.2766  -21.7946 C   0  0  0  0  0  0  0  0  0  0  0  0
   -5.9458   -1.2662  -21.0291 N   0  0  0  0  0  0  0  0  0  0  0  0
   -7.7059    0.7364  -22.6742 C   0  0  0  0  0  0  0  0  0  0  0  0
   -6.9029    1.4919  -21.6572 O   0  0  0  0  0  0  0  0  0  0  0  0
   -8.6706    1.3328  -23.6559 N   0  0  0  0  0  0  0  0  0  0  0  0
   -9.2462    0.2169  -24.4765 C   0  0  0  0  0  0  0  0  0  0  0  0
   -8.6372   -1.0692  -24.0019 C   0  0  0  0  0  0  0  0  0  0  0  0
   -9.0016    2.7894  -23.7928 C   0  0  0  0  0  0  0  0  0  0  0  0
   -7.9146    3.7815  -24.0825 C   0  0  0  0  0  0  0  0  0  0  0  0
   -8.2456    5.2381  -24.2194 N   0  0  0  0  0  0  0  0  0  0  0  0
   -9.6637    5.7025  -24.0668 C   0  0  0  0  0  0  0  0  0  0  0  0
  -10.7508    4.7103  -23.7771 C   0  0  0  0  0  0  0  0  0  0  0  0
  -12.1689    5.1748  -23.6245 C   0  0  0  0  0  0  0  0  0  0  0  0
  -13.2559    4.1826  -23.3348 C   0  0  0  0  0  0  0  0  0  0  0  0
  -12.9249    2.7261  -23.1979 C   0  0  0  0  0  0  0  0  0  0  0  0
  -11.5068    2.2616  -23.3505 C   0  0  0  0  0  0  0  0  0  0  0  0
  -10.4198    3.2537  -23.6402 C   0  0  0  0  0  0  0  0  0  0  0  0
   -5.0337   -0.7946  -19.9356 C   0  0  0  0  0  0  0  0  0  0  0  0
   -4.6463    0.6522  -19.8539 C   0  0  0  0  0  0  0  0  0  0  0  0
   -3.3696    1.1235  -20.4844 N   0  0  0  0  0  0  0  0  0  0  0  0
   -3.1092    0.8604  -21.9381 C   0  0  0  0  0  0  0  0  0  0  0  0
   -1.8324    1.3317  -22.5687 C   0  0  0  0  0  0  0  0  0  0  0  0
   -0.8160    2.0662  -21.7457 O   0  0  0  0  0  0  0  0  0  0  0  0
   -1.0763    2.3293  -20.2921 C   0  0  0  0  0  0  0  0  0  0  0  0
   -2.3531    1.8580  -19.6614 C   0  0  0  0  0  0  0  0  0  0  0  0
   -2.5014    1.4440  -20.9132 H   0  0  0  0  0  0  0  0  0  0  0  0
   -8.9290   -2.4363  -24.5458 C   0  0  0  0  0  0  0  0  0  0  0  0
  -10.0870   -3.2252  -24.0105 N   0  0  0  0  0  0  0  0  0  0  0  0
  -10.0014   -4.1970  -23.8783 H   0  0  0  0  0  0  0  0  0  0  0  0
  -11.3753   -2.5336  -23.6766 C   0  0  0  0  0  0  0  0  0  0  0  0
  -12.1980   -3.0013  -22.5128 N   0  0  0  0  0  0  0  0  0  0  0  0
  -13.4864   -2.3096  -22.1789 C   0  0  0  0  0  0  0  0  0  0  0  0
  -13.9522   -1.1502  -23.0088 C   0  0  0  0  0  0  0  0  0  0  0  0
  -13.1296   -0.6825  -24.1726 C   0  0  0  0  0  0  0  0  0  0  0  0
  -11.8412   -1.3741  -24.5065 N   0  0  0  0  0  0  0  0  0  0  0  0
  1  2  2  0  0  0
  2  3  1  0  0  0
  3  4  2  0  0  0
  4  5  1  0  0  0
  5  6  2  0  0  0
  6  7  1  0  0  0
  6  8  1  0  0  0
  8  9  2  0  0  0
  9 10  1  0  0  0
 10 11  1  0  0  0
 11 12  1  0  0  0
 12 28  1  0  0  0
 28 29  1  0  0  0
 29 30  1  0  0  0
 30 31  1  0  0  0
 31 32  1  0  0  0
 32 33  1  0  0  0
 33 34  1  0  0  0
 34 35  1  0  0  0
 10 13  1  0  0  0
 13 14  2  0  0  0
 13 15  1  0  0  0
 15 18  1  0  0  0
 18 19  2  0  0  0
 19 20  1  0  0  0
 20 21  2  0  0  0
 21 22  1  0  0  0
 22 23  2  0  0  0
 23 24  1  0  0  0
 24 25  2  0  0  0
 25 26  1  0  0  0
 26 27  2  0  0  0
 15 16  1  0  0  0
 16 17  1  0  0  0
 17 37  1  0  0  0
 37 38  1  0  0  0
 38 40  1  0  0  0
 40 41  2  0  0  0
 41 42  1  0  0  0
 42 43  2  0  0  0
 43 44  1  0  0  0
 44 45  2  0  0  0
 12  2  1  0  0  0
 35 30  1  0  0  0
 27 18  1  0  0  0
 45 40  1  0  0  0
  9  3  1  0  0  0
 17 10  1  0  0  0
 27 22  1  0  0  0
 30 36  1  0  0  0
 38 39  1  0  0  0
M  CHG 1  30   1
M  END
> <minimizedAffinity>
-8.65000

> <CNNscore>
0.2799398899

> <CNNaffinity>
6.6711516380

> <CNN_VS>
1.8675214052

> <CNNaffinity_variance>
0.3246469498

$$$$



 45 51  0  0  0  0  0  0  0  0999 V2000
  -11.7804   -3.1757  -23.1381 O   0  0  0  0  0  0  0  0  0  0  0  0
  -10.8351   -2.0155  -23.2401 C   0  0  0  0  0  0  0  0  0  0  0  0
  -11.3711   -0.6208  -23.3729 C   0  0  0  0  0  0  0  0  0  0  0  0
  -12.8523   -0.3863  -23.4038 C   0  0  0  0  0  0  0  0  0  0  0  0
  -13.3882    1.0084  -23.5366 C   0  0  0  0  0  0  0  0  0  0  0  0
  -12.4429    2.1685  -23.6386 C   0  0  0  0  0  0  0  0  0  0  0  0
  -13.3019    3.3925  -23.7576 Cl  0  0  0  0  0  0  0  0  0  0  0  0
  -10.9617    1.9341  -23.6078 C   0  0  0  0  0  0  0  0  0  0  0  0
  -10.4258    0.5394  -23.4749 C   0  0  0  0  0  0  0  0  0  0  0  0
   -8.9445    0.3049  -23.4441 C   0  0  0  0  0  0  0  0  0  0  0  0
   -8.4086   -1.0898  -23.3112 C   0  0  0  0  0  0  0  0  0  0  0  0
   -9.3539   -2.2499  -23.2092 N   0  0  0  0  0  0  0  0  0  0  0  0
   -7.4467    0.2259  -23.4276 C   0  0  0  0  0  0  0  0  0  0  0  0
   -6.6311   -1.0272  -23.3062 O   0  0  0  0  0  0  0  0  0  0  0  0
   -6.9075    1.6199  -23.5538 N   0  0  0  0  0  0  0  0  0  0  0  0
   -8.0721    2.5605  -23.6483 C   0  0  0  0  0  0  0  0  0  0  0  0
   -9.3310    1.7478  -23.5805 C   0  0  0  0  0  0  0  0  0  0  0  0
   -5.4582    2.0056  -23.5808 C   0  0  0  0  0  0  0  0  0  0  0  0
   -4.8436    2.5244  -24.8468 C   0  0  0  0  0  0  0  0  0  0  0  0
   -3.3943    2.9101  -24.8738 N   0  0  0  0  0  0  0  0  0  0  0  0
   -2.5596    2.7770  -23.6346 C   0  0  0  0  0  0  0  0  0  0  0  0
   -3.1743    2.2582  -22.3685 C   0  0  0  0  0  0  0  0  0  0  0  0
   -2.3395    2.1251  -21.1292 C   0  0  0  0  0  0  0  0  0  0  0  0
   -2.9542    1.6064  -19.8631 C   0  0  0  0  0  0  0  0  0  0  0  0
   -4.4035    1.2207  -19.8362 C   0  0  0  0  0  0  0  0  0  0  0  0
   -5.2382    1.3538  -21.0754 C   0  0  0  0  0  0  0  0  0  0  0  0
   -4.6236    1.8725  -22.3415 C   0  0  0  0  0  0  0  0  0  0  0  0
   -8.8179   -3.6447  -23.0763 C   0  0  0  0  0  0  0  0  0  0  0  0
   -7.9376   -4.2151  -24.1485 C   0  0  0  0  0  0  0  0  0  0  0  0
   -8.5463   -4.9438  -25.3097 N   0  0  0  0  0  0  0  0  0  0  0  0
   -9.0294   -4.1782  -26.5058 C   0  0  0  0  0  0  0  0  0  0  0  0
   -9.6381   -4.9069  -27.6670 C   0  0  0  0  0  0  0  0  0  0  0  0
   -9.7637   -6.4012  -27.6323 O   0  0  0  0  0  0  0  0  0  0  0  0
   -9.2806   -7.1668  -26.4363 C   0  0  0  0  0  0  0  0  0  0  0  0
   -8.6718   -6.4382  -25.2750 C   0  0  0  0  0  0  0  0  0  0  0  0
   -8.9602   -5.4393  -26.0994 H   0  0  0  0  0  0  0  0  0  0  0  0
  -10.7307    2.2839  -23.6389 C   0  0  0  0  0  0  0  0  0  0  0  0
  -11.0096    3.6993  -23.2282 N   0  0  0  0  0  0  0  0  0  0  0  0
  -11.6362    3.8838  -22.4916 H   0  0  0  0  0  0  0  0  0  0  0  0
  -10.3340    4.8337  -23.9398 C   0  0  0  0  0  0  0  0  0  0  0  0
  -10.7925    5.2396  -25.3092 N   0  0  0  0  0  0  0  0  0  0  0  0
  -10.1168    6.3740  -26.0208 C   0  0  0  0  0  0  0  0  0  0  0  0
   -8.9825    7.1027  -25.3631 C   0  0  0  0  0  0  0  0  0  0  0  0
   -8.5241    6.6969  -23.9937 C   0  0  0  0  0  0  0  0  0  0  0  0
   -9.1997    5.5625  -23.2821 N   0  0  0  0  0  0  0  0  0  0  0  0
  1  2  2  0  0  0
  2  3  1  0  0  0
  3  4  2  0  0  0
  4  5  1  0  0  0
  5  6  2  0  0  0
  6  7  1  0  0  0
  6  8  1  0  0  0
  8  9  2  0  0  0
  9 10  1  0  0  0
 10 11  1  0  0  0
 11 12  1  0  0  0
 12 28  1  0  0  0
 28 29  1  0  0  0
 29 30  1  0  0  0
 30 31  1  0  0  0
 31 32  1  0  0  0
 32 33  1  0  0  0
 33 34  1  0  0  0
 34 35  1  0  0  0
 10 13  1  0  0  0
 13 14  2  0  0  0
 13 15  1  0  0  0
 15 18  1  0  0  0
 18 19  2  0  0  0
 19 20  1  0  0  0
 20 21  2  0  0  0
 21 22  1  0  0  0
 22 23  2  0  0  0
 23 24  1  0  0  0
 24 25  2  0  0  0
 25 26  1  0  0  0
 26 27  2  0  0  0
 15 16  1  0  0  0
 16 17  1  0  0  0
 17 37  1  0  0  0
 37 38  1  0  0  0
 38 40  1  0  0  0
 40 41  2  0  0  0
 41 42  1  0  0  0
 42 43  2  0  0  0
 43 44  1  0  0  0
 44 45  2  0  0  0
 12  2  1  0  0  0
 35 30  1  0  0  0
 27 18  1  0  0  0
 45 40  1  0  0  0
  9  3  1  0  0  0
 17 10  1  0  0  0
 27 22  1  0  0  0
 30 36  1  0  0  0
 38 39  1  0  0  0
M  CHG 1  30   1
M  END
> <minimizedAffinity>
-8.54064

> <CNNscore>
0.1806604862

> <CNNaffinity>
6.6218690872

> <CNN_VS>
1.1963100433

> <CNNaffinity_variance>
0.3325968385

$$$$



 45 51  0  0  0  0  0  0  0  0999 V2000
   -7.3407   -4.0287  -24.2908 O   0  0  0  0  0  0  0  0  0  0  0  0
   -7.8273   -2.6156  -24.1627 C   0  0  0  0  0  0  0  0  0  0  0  0
   -6.8420   -1.4879  -24.0761 C   0  0  0  0  0  0  0  0  0  0  0  0
   -5.3700   -1.7733  -24.1175 C   0  0  0  0  0  0  0  0  0  0  0  0
   -4.3847   -0.6457  -24.0309 C   0  0  0  0  0  0  0  0  0  0  0  0
   -4.8714    0.7674  -23.9029 C   0  0  0  0  0  0  0  0  0  0  0  0
   -3.6416    1.6243  -23.8425 Cl  0  0  0  0  0  0  0  0  0  0  0  0
   -6.3434    1.0528  -23.8615 C   0  0  0  0  0  0  0  0  0  0  0  0
   -7.3286   -0.0749  -23.9481 C   0  0  0  0  0  0  0  0  0  0  0  0
   -8.8007    0.2105  -23.9067 C   0  0  0  0  0  0  0  0  0  0  0  0
   -9.7860   -0.9171  -23.9933 C   0  0  0  0  0  0  0  0  0  0  0  0
   -9.2993   -2.3302  -24.1213 N   0  0  0  0  0  0  0  0  0  0  0  0
  -10.2346    0.6477  -23.8526 C   0  0  0  0  0  0  0  0  0  0  0  0
  -11.4335   -0.2514  -23.9169 O   0  0  0  0  0  0  0  0  0  0  0  0
  -10.2590    2.1419  -23.7227 N   0  0  0  0  0  0  0  0  0  0  0  0
   -8.8403    2.6282  -23.6966 C   0  0  0  0  0  0  0  0  0  0  0  0
   -7.9390    1.4345  -23.8103 C   0  0  0  0  0  0  0  0  0  0  0  0
  -11.4867    2.9992  -23.6345 C   0  0  0  0  0  0  0  0  0  0  0  0
  -12.4255    2.8477  -22.4745 C   0  0  0  0  0  0  0  0  0  0  0  0
  -13.6532    3.7050  -22.3863 N   0  0  0  0  0  0  0  0  0  0  0  0
  -13.9420    4.7139  -23.4581 C   0  0  0  0  0  0  0  0  0  0  0  0
  -13.0031    4.8654  -24.6181 C   0  0  0  0  0  0  0  0  0  0  0  0
  -13.2920    5.8743  -25.6900 C   0  0  0  0  0  0  0  0  0  0  0  0
  -12.3531    6.0258  -26.8500 C   0  0  0  0  0  0  0  0  0  0  0  0
  -11.1255    5.1685  -26.9381 C   0  0  0  0  0  0  0  0  0  0  0  0
  -10.8367    4.1596  -25.8663 C   0  0  0  0  0  0  0  0  0  0  0  0
  -11.7755    4.0081  -24.7064 C   0  0  0  0  0  0  0  0  0  0  0  0
  -10.2847   -3.4579  -24.2080 C   0  0  0  0  0  0  0  0  0  0  0  0
  -10.6429   -4.0400  -25.5432 C   0  0  0  0  0  0  0  0  0  0  0  0
   -9.7945   -5.1229  -26.1411 N   0  0  0  0  0  0  0  0  0  0  0  0
   -9.1087   -6.1162  -25.2506 C   0  0  0  0  0  0  0  0  0  0  0  0
   -8.2604   -7.1991  -25.8486 C   0  0  0  0  0  0  0  0  0  0  0  0
   -8.0978   -7.2887  -27.3370 O   0  0  0  0  0  0  0  0  0  0  0  0
   -8.7836   -6.2955  -28.2275 C   0  0  0  0  0  0  0  0  0  0  0  0
   -9.6320   -5.2125  -27.6296 C   0  0  0  0  0  0  0  0  0  0  0  0
   -9.2177   -5.8593  -26.5477 H   0  0  0  0  0  0  0  0  0  0  0  0
   -6.4393    1.4604  -23.8250 C   0  0  0  0  0  0  0  0  0  0  0  0
   -5.6886    2.0841  -22.6860 N   0  0  0  0  0  0  0  0  0  0  0  0
   -5.2704    2.9683  -22.7976 H   0  0  0  0  0  0  0  0  0  0  0  0
   -5.5751    1.3607  -21.3770 C   0  0  0  0  0  0  0  0  0  0  0  0
   -6.6596    0.4195  -20.9436 N   0  0  0  0  0  0  0  0  0  0  0  0
   -6.5460   -0.3039  -19.6345 C   0  0  0  0  0  0  0  0  0  0  0  0
   -5.3479   -0.0861  -18.7587 C   0  0  0  0  0  0  0  0  0  0  0  0
   -4.2633    0.8552  -19.1921 C   0  0  0  0  0  0  0  0  0  0  0  0
   -4.3769    1.5785  -20.5011 N   0  0  0  0  0  0  0  0  0  0  0  0
  1  2  2  0  0  0
  2  3  1  0  0  0
  3  4  2  0  0  0
  4  5  1  0  0  0
  5  6  2  0  0  0
  6  7  1  0  0  0
  6  8  1  0  0  0
  8  9  2  0  0  0
  9 10  1  0  0  0
 10 11  1  0  0  0
 11 12  1  0  0  0
 12 28  1  0  0  0
 28 29  1  0  0  0
 29 30  1  0  0  0
 30 31  1  0  0  0
 31 32  1  0  0  0
 32 33  1  0  0  0
 33 34  1  0  0  0
 34 35  1  0  0  0
 10 13  1  0  0  0
 13 14  2  0  0  0
 13 15  1  0  0  0
 15 18  1  0  0  0
 18 19  2  0  0  0
 19 20  1  0  0  0
 20 21  2  0  0  0
 21 22  1  0  0  0
 22 23  2  0  0  0
 23 24  1  0  0  0
 24 25  2  0  0  0
 25 26  1  0  0  0
 26 27  2  0  0  0
 15 16  1  0  0  0
 16 17  1  0  0  0
 17 37  1  0  0  0
 37 38  1  0  0  0
 38 40  1  0  0  0
 40 41  2  0  0  0
 41 42  1  0  0  0
 42 43  2  0  0  0
 43 44  1  0  0  0
 44 45  2  0  0  0
 12  2  1  0  0  0
 35 30  1  0  0  0
 27 18  1  0  0  0
 45 40  1  0  0  0
  9  3  1  0  0  0
 17 10  1  0  0  0
 27 22  1  0  0  0
 30 36  1  0  0  0
 38 39  1  0  0  0
M  CHG 1  30   1
M  END
> <minimizedAffinity>
-8.19218

> <CNNscore>
0.1793548763

> <CNNaffinity>
6.5723700523

> <CNN_VS>
1.1787866354

> <CNNaffinity_variance>
0.0678036585

$$$$



 45 51  0  0  0  0  0  0  0  0999 V2000
  -11.7211   -3.2367  -23.2282 O   0  0  0  0  0  0  0  0  0  0  0  0
  -10.7931   -2.0597  -23.2864 C   0  0  0  0  0  0  0  0  0  0  0  0
  -11.3492   -0.6708  -23.3954 C   0  0  0  0  0  0  0  0  0  0  0  0
  -12.8333   -0.4590  -23.4461 C   0  0  0  0  0  0  0  0  0  0  0  0
  -13.3894    0.9298  -23.5551 C   0  0  0  0  0  0  0  0  0  0  0  0
  -12.4613    2.1069  -23.6133 C   0  0  0  0  0  0  0  0  0  0  0  0
  -13.3379    3.3197  -23.7180 Cl  0  0  0  0  0  0  0  0  0  0  0  0
  -10.9773    1.8951  -23.5625 C   0  0  0  0  0  0  0  0  0  0  0  0
  -10.4212    0.5062  -23.4536 C   0  0  0  0  0  0  0  0  0  0  0  0
   -8.9371    0.2944  -23.4028 C   0  0  0  0  0  0  0  0  0  0  0  0
   -8.3810   -1.0944  -23.2938 C   0  0  0  0  0  0  0  0  0  0  0  0
   -9.3090   -2.2715  -23.2356 N   0  0  0  0  0  0  0  0  0  0  0  0
   -7.4387    0.2386  -23.3624 C   0  0  0  0  0  0  0  0  0  0  0  0
   -6.6052   -1.0040  -23.2567 O   0  0  0  0  0  0  0  0  0  0  0  0
   -6.9200    1.6436  -23.4463 N   0  0  0  0  0  0  0  0  0  0  0  0
   -8.0979    2.5677  -23.5385 C   0  0  0  0  0  0  0  0  0  0  0  0
   -9.3445    1.7339  -23.5116 C   0  0  0  0  0  0  0  0  0  0  0  0
   -5.4769    2.0526  -23.4392 C   0  0  0  0  0  0  0  0  0  0  0  0
   -4.8573    2.6383  -24.6732 C   0  0  0  0  0  0  0  0  0  0  0  0
   -3.4141    3.0473  -24.6661 N   0  0  0  0  0  0  0  0  0  0  0  0
   -2.5907    2.8706  -23.4249 C   0  0  0  0  0  0  0  0  0  0  0  0
   -3.2103    2.2849  -22.1907 C   0  0  0  0  0  0  0  0  0  0  0  0
   -2.3868    2.1082  -20.9495 C   0  0  0  0  0  0  0  0  0  0  0  0
   -3.0065    1.5225  -19.7154 C   0  0  0  0  0  0  0  0  0  0  0  0
   -4.4496    1.1135  -19.7226 C   0  0  0  0  0  0  0  0  0  0  0  0
   -5.2731    1.2902  -20.9638 C   0  0  0  0  0  0  0  0  0  0  0  0
   -4.6535    1.8759  -22.1979 C   0  0  0  0  0  0  0  0  0  0  0  0
   -8.7529   -3.6604  -23.1267 C   0  0  0  0  0  0  0  0  0  0  0  0
   -7.8871   -4.2096  -24.2215 C   0  0  0  0  0  0  0  0  0  0  0  0
   -8.5053   -4.9744  -25.3541 N   0  0  0  0  0  0  0  0  0  0  0  0
   -8.6627   -6.4630  -25.2564 C   0  0  0  0  0  0  0  0  0  0  0  0
   -9.2809   -7.2278  -26.3890 C   0  0  0  0  0  0  0  0  0  0  0  0
   -9.7417   -6.5041  -27.6194 O   0  0  0  0  0  0  0  0  0  0  0  0
   -9.5844   -5.0157  -27.7172 C   0  0  0  0  0  0  0  0  0  0  0  0
   -8.9662   -4.2508  -26.5845 C   0  0  0  0  0  0  0  0  0  0  0  0
   -8.9257   -5.4945  -26.1243 H   0  0  0  0  0  0  0  0  0  0  0  0
  -10.7515    2.2491  -23.5814 C   0  0  0  0  0  0  0  0  0  0  0  0
  -11.0446    3.6793  -23.2368 N   0  0  0  0  0  0  0  0  0  0  0  0
  -11.6803    3.8915  -22.5157 H   0  0  0  0  0  0  0  0  0  0  0  0
  -10.3692    4.7860  -23.9910 C   0  0  0  0  0  0  0  0  0  0  0  0
   -9.2852    5.5884  -23.3344 N   0  0  0  0  0  0  0  0  0  0  0  0
   -8.6099    6.6952  -24.0887 C   0  0  0  0  0  0  0  0  0  0  0  0
   -9.0185    6.9996  -25.4995 C   0  0  0  0  0  0  0  0  0  0  0  0
  -10.1025    6.1972  -26.1560 C   0  0  0  0  0  0  0  0  0  0  0  0
  -10.7778    5.0905  -25.4019 N   0  0  0  0  0  0  0  0  0  0  0  0
  1  2  2  0  0  0
  2  3  1  0  0  0
  3  4  2  0  0  0
  4  5  1  0  0  0
  5  6  2  0  0  0
  6  7  1  0  0  0
  6  8  1  0  0  0
  8  9  2  0  0  0
  9 10  1  0  0  0
 10 11  1  0  0  0
 11 12  1  0  0  0
 12 28  1  0  0  0
 28 29  1  0  0  0
 29 30  1  0  0  0
 30 31  1  0  0  0
 31 32  1  0  0  0
 32 33  1  0  0  0
 33 34  1  0  0  0
 34 35  1  0  0  0
 10 13  1  0  0  0
 13 14  2  0  0  0
 13 15  1  0  0  0
 15 18  1  0  0  0
 18 19  2  0  0  0
 19 20  1  0  0  0
 20 21  2  0  0  0
 21 22  1  0  0  0
 22 23  2  0  0  0
 23 24  1  0  0  0
 24 25  2  0  0  0
 25 26  1  0  0  0
 26 27  2  0  0  0
 15 16  1  0  0  0
 16 17  1  0  0  0
 17 37  1  0  0  0
 37 38  1  0  0  0
 38 40  1  0  0  0
 40 41  2  0  0  0
 41 42  1  0  0  0
 42 43  2  0  0  0
 43 44  1  0  0  0
 44 45  2  0  0  0
 12  2  1  0  0  0
 35 30  1  0  0  0
 27 18  1  0  0  0
 45 40  1  0  0  0
  9  3  1  0  0  0
 17 10  1  0  0  0
 27 22  1  0  0  0
 30 36  1  0  0  0
 38 39  1  0  0  0
M  CHG 1  30   1
M  END
> <minimizedAffinity>
-8.57558

> <CNNscore>
0.1776737422

> <CNNaffinity>
6.6444063187

> <CNN_VS>
1.1805365086

> <CNNaffinity_variance>
0.2787215710

$$$$



 45 51  0  0  0  0  0  0  0  0999 V2000
   -7.3683   -5.3112  -23.4082 O   0  0  0  0  0  0  0  0  0  0  0  0
   -7.9161   -3.9287  -23.2114 C   0  0  0  0  0  0  0  0  0  0  0  0
   -7.2485   -2.9867  -22.2537 C   0  0  0  0  0  0  0  0  0  0  0  0
   -6.0331   -3.4272  -21.4930 C   0  0  0  0  0  0  0  0  0  0  0  0
   -5.3655   -2.4853  -20.5354 C   0  0  0  0  0  0  0  0  0  0  0  0
   -5.9133   -1.1028  -20.3386 C   0  0  0  0  0  0  0  0  0  0  0  0
   -5.0192   -0.4435  -19.3306 Cl  0  0  0  0  0  0  0  0  0  0  0  0
   -7.1287   -0.6623  -21.0993 C   0  0  0  0  0  0  0  0  0  0  0  0
   -7.7963   -1.6043  -22.0569 C   0  0  0  0  0  0  0  0  0  0  0  0
   -9.0117   -1.1638  -22.8177 C   0  0  0  0  0  0  0  0  0  0  0  0
   -9.6793   -2.1058  -23.7753 C   0  0  0  0  0  0  0  0  0  0  0  0
   -9.1315   -3.4882  -23.9722 N   0  0  0  0  0  0  0  0  0  0  0  0
  -10.2132   -0.5855  -23.5046 C   0  0  0  0  0  0  0  0  0  0  0  0
  -11.0779   -1.2880  -24.5090 O   0  0  0  0  0  0  0  0  0  0  0  0
  -10.3983    0.8188  -23.0109 N   0  0  0  0  0  0  0  0  0  0  0  0
   -9.3112    1.1083  -22.0188 C   0  0  0  0  0  0  0  0  0  0  0  0
   -8.4542   -0.1170  -21.8994 C   0  0  0  0  0  0  0  0  0  0  0  0
  -11.4805    1.7670  -23.4348 C   0  0  0  0  0  0  0  0  0  0  0  0
  -12.8945    1.5387  -22.9896 C   0  0  0  0  0  0  0  0  0  0  0  0
  -13.9767    2.4869  -23.4135 N   0  0  0  0  0  0  0  0  0  0  0  0
  -13.6448    3.6634  -24.2827 C   0  0  0  0  0  0  0  0  0  0  0  0
  -12.2307    3.8918  -24.7280 C   0  0  0  0  0  0  0  0  0  0  0  0
  -11.8989    5.0684  -25.5972 C   0  0  0  0  0  0  0  0  0  0  0  0
  -10.4848    5.2967  -26.0424 C   0  0  0  0  0  0  0  0  0  0  0  0
   -9.4027    4.3485  -25.6185 C   0  0  0  0  0  0  0  0  0  0  0  0
   -9.7345    3.1719  -24.7493 C   0  0  0  0  0  0  0  0  0  0  0  0
  -11.1485    2.9436  -24.3040 C   0  0  0  0  0  0  0  0  0  0  0  0
   -9.7991   -4.4302  -24.9298 C   0  0  0  0  0  0  0  0  0  0  0  0
   -9.1360   -5.7259  -25.2925 C   0  0  0  0  0  0  0  0  0  0  0  0
   -8.3307   -5.8289  -26.5538 N   0  0  0  0  0  0  0  0  0  0  0  0
   -7.0237   -5.1021  -26.6707 C   0  0  0  0  0  0  0  0  0  0  0  0
   -6.2185   -5.2052  -27.9320 C   0  0  0  0  0  0  0  0  0  0  0  0
   -6.7202   -6.0350  -29.0764 O   0  0  0  0  0  0  0  0  0  0  0  0
   -8.0271   -6.7618  -28.9595 C   0  0  0  0  0  0  0  0  0  0  0  0
   -8.8324   -6.6587  -27.6982 C   0  0  0  0  0  0  0  0  0  0  0  0
   -7.7832   -5.8990  -27.4115 H   0  0  0  0  0  0  0  0  0  0  0  0
   -7.2510   -0.2688  -21.0167 C   0  0  0  0  0  0  0  0  0  0  0  0
   -5.9121    0.2213  -21.4827 N   0  0  0  0  0  0  0  0  0  0  0  0
   -5.1514   -0.4013  -21.5361 H   0  0  0  0  0  0  0  0  0  0  0  0
   -5.7322    1.6598  -21.8673 C   0  0  0  0  0  0  0  0  0  0  0  0
   -6.9294    2.5086  -22.1774 N   0  0  0  0  0  0  0  0  0  0  0  0
   -6.7495    3.9473  -22.5620 C   0  0  0  0  0  0  0  0  0  0  0  0
   -5.3724    4.5371  -22.6365 C   0  0  0  0  0  0  0  0  0  0  0  0
   -4.1752    3.6883  -22.3264 C   0  0  0  0  0  0  0  0  0  0  0  0
   -4.3550    2.2498  -21.9418 N   0  0  0  0  0  0  0  0  0  0  0  0
  1  2  2  0  0  0
  2  3  1  0  0  0
  3  4  2  0  0  0
  4  5  1  0  0  0
  5  6  2  0  0  0
  6  7  1  0  0  0
  6  8  1  0  0  0
  8  9  2  0  0  0
  9 10  1  0  0  0
 10 11  1  0  0  0
 11 12  1  0  0  0
 12 28  1  0  0  0
 28 29  1  0  0  0
 29 30  1  0  0  0
 30 31  1  0  0  0
 31 32  1  0  0  0
 32 33  1  0  0  0
 33 34  1  0  0  0
 34 35  1  0  0  0
 10 13  1  0  0  0
 13 14  2  0  0  0
 13 15  1  0  0  0
 15 18  1  0  0  0
 18 19  2  0  0  0
 19 20  1  0  0  0
 20 21  2  0  0  0
 21 22  1  0  0  0
 22 23  2  0  0  0
 23 24  1  0  0  0
 24 25  2  0  0  0
 25 26  1  0  0  0
 26 27  2  0  0  0
 15 16  1  0  0  0
 16 17  1  0  0  0
 17 37  1  0  0  0
 37 38  1  0  0  0
 38 40  1  0  0  0
 40 41  2  0  0  0
 41 42  1  0  0  0
 42 43  2  0  0  0
 43 44  1  0  0  0
 44 45  2  0  0  0
 12  2  1  0  0  0
 35 30  1  0  0  0
 27 18  1  0  0  0
 45 40  1  0  0  0
  9  3  1  0  0  0
 17 10  1  0  0  0
 27 22  1  0  0  0
 30 36  1  0  0  0
 38 39  1  0  0  0
M  CHG 1  30   1
M  END
> <minimizedAffinity>
-8.70225

> <CNNscore>
0.1726529002

> <CNNaffinity>
6.5527710915

> <CNN_VS>
1.1313549280

> <CNNaffinity_variance>
0.2945668697

$$$$



 45 51  0  0  0  0  0  0  0  0999 V2000
  -13.3122    3.4744  -23.7403 O   0  0  0  0  0  0  0  0  0  0  0  0
  -11.9278    2.8978  -23.7091 C   0  0  0  0  0  0  0  0  0  0  0  0
  -11.7347    1.4194  -23.5440 C   0  0  0  0  0  0  0  0  0  0  0  0
  -12.9258    0.5177  -23.4101 C   0  0  0  0  0  0  0  0  0  0  0  0
  -12.7327   -0.9606  -23.2450 C   0  0  0  0  0  0  0  0  0  0  0  0
  -11.3483   -1.5372  -23.2138 C   0  0  0  0  0  0  0  0  0  0  0  0
  -11.5207   -3.0171  -23.0392 Cl  0  0  0  0  0  0  0  0  0  0  0  0
  -10.1571   -0.6355  -23.3477 C   0  0  0  0  0  0  0  0  0  0  0  0
  -10.3503    0.8428  -23.5128 C   0  0  0  0  0  0  0  0  0  0  0  0
   -9.1590    1.7445  -23.6468 C   0  0  0  0  0  0  0  0  0  0  0  0
   -9.3522    3.2228  -23.8119 C   0  0  0  0  0  0  0  0  0  0  0  0
  -10.7366    3.7994  -23.8430 N   0  0  0  0  0  0  0  0  0  0  0  0
   -7.8791    2.5172  -23.7681 C   0  0  0  0  0  0  0  0  0  0  0  0
   -7.7589    4.0023  -23.9420 O   0  0  0  0  0  0  0  0  0  0  0  0
   -6.7405    1.5442  -23.6852 N   0  0  0  0  0  0  0  0  0  0  0  0
   -7.3167    0.1701  -23.5125 C   0  0  0  0  0  0  0  0  0  0  0  0
   -8.8114    0.2939  -23.4888 C   0  0  0  0  0  0  0  0  0  0  0  0
   -5.2818    1.8855  -23.7614 C   0  0  0  0  0  0  0  0  0  0  0  0
   -4.6641    2.2471  -25.0795 C   0  0  0  0  0  0  0  0  0  0  0  0
   -3.2055    2.5883  -25.1558 N   0  0  0  0  0  0  0  0  0  0  0  0
   -2.3645    2.5679  -23.9139 C   0  0  0  0  0  0  0  0  0  0  0  0
   -2.9823    2.2062  -22.5957 C   0  0  0  0  0  0  0  0  0  0  0  0
   -2.1413    2.1858  -21.3537 C   0  0  0  0  0  0  0  0  0  0  0  0
   -2.7591    1.8241  -20.0356 C   0  0  0  0  0  0  0  0  0  0  0  0
   -4.2177    1.4829  -19.9594 C   0  0  0  0  0  0  0  0  0  0  0  0
   -5.0587    1.5033  -21.2013 C   0  0  0  0  0  0  0  0  0  0  0  0
   -4.4410    1.8650  -22.5194 C   0  0  0  0  0  0  0  0  0  0  0  0
  -10.9298    5.2778  -24.0081 C   0  0  0  0  0  0  0  0  0  0  0  0
   -9.7823    6.1401  -24.4437 C   0  0  0  0  0  0  0  0  0  0  0  0
   -9.3263    6.1161  -25.8725 N   0  0  0  0  0  0  0  0  0  0  0  0
   -7.9900    6.6880  -26.2430 C   0  0  0  0  0  0  0  0  0  0  0  0
   -7.5339    6.6640  -27.6718 C   0  0  0  0  0  0  0  0  0  0  0  0
   -8.4142    6.0681  -28.7301 O   0  0  0  0  0  0  0  0  0  0  0  0
   -9.7504    5.4961  -28.3596 C   0  0  0  0  0  0  0  0  0  0  0  0
  -10.2065    5.5201  -26.9308 C   0  0  0  0  0  0  0  0  0  0  0  0
   -9.0162    6.0997  -26.8441 H   0  0  0  0  0  0  0  0  0  0  0  0
   -9.7872   -0.8348  -23.3342 C   0  0  0  0  0  0  0  0  0  0  0  0
   -9.4703   -1.9804  -22.4193 N   0  0  0  0  0  0  0  0  0  0  0  0
  -10.0796   -2.7519  -22.3674 H   0  0  0  0  0  0  0  0  0  0  0  0
   -8.2251   -1.9506  -21.5836 C   0  0  0  0  0  0  0  0  0  0  0  0
   -8.1886   -1.1420  -20.3207 N   0  0  0  0  0  0  0  0  0  0  0  0
   -6.9433   -1.1122  -19.4850 C   0  0  0  0  0  0  0  0  0  0  0  0
   -5.7346   -1.8910  -19.9121 C   0  0  0  0  0  0  0  0  0  0  0  0
   -5.7711   -2.6995  -21.1750 C   0  0  0  0  0  0  0  0  0  0  0  0
   -7.0163   -2.7293  -22.0107 N   0  0  0  0  0  0  0  0  0  0  0  0
  1  2  2  0  0  0
  2  3  1  0  0  0
  3  4  2  0  0  0
  4  5  1  0  0  0
  5  6  2  0  0  0
  6  7  1  0  0  0
  6  8  1  0  0  0
  8  9  2  0  0  0
  9 10  1  0  0  0
 10 11  1  0  0  0
 11 12  1  0  0  0
 12 28  1  0  0  0
 28 29  1  0  0  0
 29 30  1  0  0  0
 30 31  1  0  0  0
 31 32  1  0  0  0
 32 33  1  0  0  0
 33 34  1  0  0  0
 34 35  1  0  0  0
 10 13  1  0  0  0
 13 14  2  0  0  0
 13 15  1  0  0  0
 15 18  1  0  0  0
 18 19  2  0  0  0
 19 20  1  0  0  0
 20 21  2  0  0  0
 21 22  1  0  0  0
 22 23  2  0  0  0
 23 24  1  0  0  0
 24 25  2  0  0  0
 25 26  1  0  0  0
 26 27  2  0  0  0
 15 16  1  0  0  0
 16 17  1  0  0  0
 17 37  1  0  0  0
 37 38  1  0  0  0
 38 40  1  0  0  0
 40 41  2  0  0  0
 41 42  1  0  0  0
 42 43  2  0  0  0
 43 44  1  0  0  0
 44 45  2  0  0  0
 12  2  1  0  0  0
 35 30  1  0  0  0
 27 18  1  0  0  0
 45 40  1  0  0  0
  9  3  1  0  0  0
 17 10  1  0  0  0
 27 22  1  0  0  0
 30 36  1  0  0  0
 38 39  1  0  0  0
M  CHG 1  30   1
M  END
> <minimizedAffinity>
-7.68612

> <CNNscore>
0.1460409611

> <CNNaffinity>
6.4877233505

> <CNN_VS>
0.9474733472

> <CNNaffinity_variance>
0.1954923868

$$$$
