


 36 40  0  0  0  0  0  0  0  0999 V2000
   -7.1425   -1.0570  -23.8306 N   0  0  0  0  0  0  0  0  0  0  0  0
   -7.5871    0.3711  -23.9439 C   0  0  0  0  0  0  0  0  0  0  0  0
   -9.0407    0.7168  -23.8118 C   0  0  0  0  0  0  0  0  0  0  0  0
  -10.4523    1.2121  -23.7021 C   0  0  0  0  0  0  0  0  0  0  0  0
  -11.5762    0.7877  -23.5195 O   0  0  0  0  0  0  0  0  0  0  0  0
  -10.4359    2.7017  -23.8771 N   0  0  0  0  0  0  0  0  0  0  0  0
   -9.0141    3.1271  -24.0951 C   0  0  0  0  0  0  0  0  0  0  0  0
   -8.1519    1.9003  -24.0547 C   0  0  0  0  0  0  0  0  0  0  0  0
  -10.0498   -0.3657  -23.5664 C   0  0  0  0  0  0  0  0  0  0  0  0
  -11.5034   -0.0200  -23.4343 C   0  0  0  0  0  0  0  0  0  0  0  0
  -12.5124   -1.1025  -23.1889 C   0  0  0  0  0  0  0  0  0  0  0  0
  -13.9661   -0.7568  -23.0568 Cl  0  0  0  0  0  0  0  0  0  0  0  0
  -12.0678   -2.5306  -23.0756 C   0  0  0  0  0  0  0  0  0  0  0  0
  -10.6142   -2.8762  -23.2077 C   0  0  0  0  0  0  0  0  0  0  0  0
   -9.6052   -1.7938  -23.4531 C   0  0  0  0  0  0  0  0  0  0  0  0
   -8.1515   -2.1394  -23.5852 C   0  0  0  0  0  0  0  0  0  0  0  0
   -7.7069   -3.5675  -23.4720 O   0  0  0  0  0  0  0  0  0  0  0  0
  -11.6313    3.6070  -23.8407 C   0  0  0  0  0  0  0  0  0  0  0  0
  -12.4473    3.7217  -22.5873 C   0  0  0  0  0  0  0  0  0  0  0  0
  -13.6428    4.6270  -22.5508 N   0  0  0  0  0  0  0  0  0  0  0  0
  -14.0222    5.4176  -23.7677 C   0  0  0  0  0  0  0  0  0  0  0  0
  -13.2062    5.3029  -25.0211 C   0  0  0  0  0  0  0  0  0  0  0  0
  -13.5857    6.0936  -26.2381 C   0  0  0  0  0  0  0  0  0  0  0  0
  -12.7696    5.9788  -27.4915 C   0  0  0  0  0  0  0  0  0  0  0  0
  -11.5742    5.0735  -27.5279 C   0  0  0  0  0  0  0  0  0  0  0  0
  -11.1947    4.2829  -26.3110 C   0  0  0  0  0  0  0  0  0  0  0  0
  -12.0108    4.3976  -25.0576 C   0  0  0  0  0  0  0  0  0  0  0  0
   -6.6622    1.8636  -24.2270 C   0  0  0  0  0  0  0  0  0  0  0  0
   -5.9472    3.0384  -24.8257 O   0  0  0  0  0  0  0  0  0  0  0  0
   -4.9840    3.0146  -24.9370 H   0  0  0  0  0  0  0  0  0  0  0  0
   -5.6888   -1.4026  -23.9627 C   0  0  0  0  0  0  0  0  0  0  0  0
   -4.5017   -4.1088  -26.6118 C   0  0  0  0  0  0  0  0  0  0  0  0
   -5.0152   -3.4995  -25.3409 N   0  0  0  0  0  0  0  0  0  0  0  0
   -5.1753   -2.0119  -25.2336 C   0  0  0  0  0  0  0  0  0  0  0  0
   -4.8218   -1.1336  -26.3971 O   0  0  0  0  0  0  0  0  0  0  0  0
   -5.2472   -4.0759  -24.5773 H   0  0  0  0  0  0  0  0  0  0  0  0
 32 33  1  0  0  0
 33 34  1  0  0  0
 34 35  2  0  0  0
 34 31  1  0  0  0
 31  1  1  0  0  0
  1  2  1  0  0  0
  3  2  1  0  0  0
  3  4  1  0  0  0
  4  5  2  0  0  0
  4  6  1  0  0  0
  6 18  1  0  0  0
 18 19  2  0  0  0
 19 20  1  0  0  0
 20 21  2  0  0  0
 21 22  1  0  0  0
 22 23  2  0  0  0
 23 24  1  0  0  0
 24 25  2  0  0  0
 25 26  1  0  0  0
 26 27  2  0  0  0
  6  7  1  0  0  0
  7  8  1  0  0  0
  8 28  1  0  0  0
 28 29  1  0  0  0
  3  9  1  0  0  0
  9 10  2  0  0  0
 10 11  1  0  0  0
 11 12  1  0  0  0
 11 13  2  0  0  0
 13 14  1  0  0  0
 14 15  2  0  0  0
 15 16  1  0  0  0
 16 17  2  0  0  0
 16  1  1  0  0  0
  8  3  1  0  0  0
 15  9  1  0  0  0
 27 18  1  0  0  0
 27 22  1  0  0  0
 33 36  1  0  0  0
 29 30  1  0  0  0
M  END
> <minimizedAffinity>
-6.91517

> <CNNscore>
0.9025682211

> <CNNaffinity>
6.5482378006

> <CNN_VS>
5.9102311134

> <CNNaffinity_variance>
0.1370461881

$$$$



 36 40  0  0  0  0  0  0  0  0999 V2000
   -9.3554    2.7583  -24.6496 N   0  0  0  0  0  0  0  0  0  0  0  0
   -8.4306    1.5835  -24.7713 C   0  0  0  0  0  0  0  0  0  0  0  0
   -8.9128    0.2092  -24.4128 C   0  0  0  0  0  0  0  0  0  0  0  0
   -9.2516   -1.2165  -24.0925 C   0  0  0  0  0  0  0  0  0  0  0  0
  -10.1852   -1.8845  -23.6943 O   0  0  0  0  0  0  0  0  0  0  0  0
   -8.0351   -2.0530  -24.3579 N   0  0  0  0  0  0  0  0  0  0  0  0
   -6.9444   -1.1442  -24.8422 C   0  0  0  0  0  0  0  0  0  0  0  0
   -7.4869    0.2539  -24.8761 C   0  0  0  0  0  0  0  0  0  0  0  0
  -10.3198    0.0095  -23.9325 C   0  0  0  0  0  0  0  0  0  0  0  0
  -10.8020   -1.3649  -23.5740 C   0  0  0  0  0  0  0  0  0  0  0  0
  -12.2089   -1.5645  -23.0937 C   0  0  0  0  0  0  0  0  0  0  0  0
  -12.6911   -2.9389  -22.7352 Cl  0  0  0  0  0  0  0  0  0  0  0  0
  -13.1336   -0.3898  -22.9720 C   0  0  0  0  0  0  0  0  0  0  0  0
  -12.6515    0.9846  -23.3305 C   0  0  0  0  0  0  0  0  0  0  0  0
  -11.2445    1.1842  -23.8108 C   0  0  0  0  0  0  0  0  0  0  0  0
  -10.7623    2.5587  -24.1693 C   0  0  0  0  0  0  0  0  0  0  0  0
  -11.6871    3.7334  -24.0476 O   0  0  0  0  0  0  0  0  0  0  0  0
   -7.9280   -3.5375  -24.1718 C   0  0  0  0  0  0  0  0  0  0  0  0
   -7.3224   -4.0944  -22.9175 C   0  0  0  0  0  0  0  0  0  0  0  0
   -7.2154   -5.5789  -22.7313 N   0  0  0  0  0  0  0  0  0  0  0  0
   -7.7140   -6.5066  -23.7994 C   0  0  0  0  0  0  0  0  0  0  0  0
   -8.3197   -5.9497  -25.0536 C   0  0  0  0  0  0  0  0  0  0  0  0
   -8.8183   -6.8775  -26.1217 C   0  0  0  0  0  0  0  0  0  0  0  0
   -9.4239   -6.3205  -27.3759 C   0  0  0  0  0  0  0  0  0  0  0  0
   -9.5310   -4.8360  -27.5621 C   0  0  0  0  0  0  0  0  0  0  0  0
   -9.0323   -3.9083  -26.4941 C   0  0  0  0  0  0  0  0  0  0  0  0
   -8.4267   -4.4652  -25.2398 C   0  0  0  0  0  0  0  0  0  0  0  0
   -6.7353    1.4812  -25.2991 C   0  0  0  0  0  0  0  0  0  0  0  0
   -5.2450    1.5400  -25.1401 O   0  0  0  0  0  0  0  0  0  0  0  0
   -4.7590    2.3337  -25.4137 H   0  0  0  0  0  0  0  0  0  0  0  0
   -8.8732    4.1327  -25.0081 C   0  0  0  0  0  0  0  0  0  0  0  0
   -7.1226    5.8230  -21.8731 C   0  0  0  0  0  0  0  0  0  0  0  0
   -8.1528    5.1435  -22.7258 N   0  0  0  0  0  0  0  0  0  0  0  0
   -7.8430    4.8122  -24.1555 C   0  0  0  0  0  0  0  0  0  0  0  0
   -6.5029    5.1604  -24.7327 O   0  0  0  0  0  0  0  0  0  0  0  0
   -9.0323    4.9150  -22.3470 H   0  0  0  0  0  0  0  0  0  0  0  0
 32 33  1  0  0  0
 33 34  1  0  0  0
 34 35  2  0  0  0
 34 31  1  0  0  0
 31  1  1  0  0  0
  1  2  1  0  0  0
  3  2  1  0  0  0
  3  4  1  0  0  0
  4  5  2  0  0  0
  4  6  1  0  0  0
  6 18  1  0  0  0
 18 19  2  0  0  0
 19 20  1  0  0  0
 20 21  2  0  0  0
 21 22  1  0  0  0
 22 23  2  0  0  0
 23 24  1  0  0  0
 24 25  2  0  0  0
 25 26  1  0  0  0
 26 27  2  0  0  0
  6  7  1  0  0  0
  7  8  1  0  0  0
  8 28  1  0  0  0
 28 29  1  0  0  0
  3  9  1  0  0  0
  9 10  2  0  0  0
 10 11  1  0  0  0
 11 12  1  0  0  0
 11 13  2  0  0  0
 13 14  1  0  0  0
 14 15  2  0  0  0
 15 16  1  0  0  0
 16 17  2  0  0  0
 16  1  1  0  0  0
  8  3  1  0  0  0
 15  9  1  0  0  0
 27 18  1  0  0  0
 27 22  1  0  0  0
 33 36  1  0  0  0
 29 30  1  0  0  0
M  END
> <minimizedAffinity>
-7.21918

> <CNNscore>
0.5404812694

> <CNNaffinity>
6.2548518181

> <CNN_VS>
3.3806302547

> <CNNaffinity_variance>
0.1527970880

$$$$



 36 40  0  0  0  0  0  0  0  0999 V2000
   -6.8504   -0.8516  -22.1995 N   0  0  0  0  0  0  0  0  0  0  0  0
   -7.0125    0.4795  -22.8716 C   0  0  0  0  0  0  0  0  0  0  0  0
   -8.3441    0.8778  -23.4355 C   0  0  0  0  0  0  0  0  0  0  0  0
   -9.6077    1.4105  -24.0434 C   0  0  0  0  0  0  0  0  0  0  0  0
  -10.7655    1.0859  -24.2181 O   0  0  0  0  0  0  0  0  0  0  0  0
   -9.3156    2.7719  -24.6014 N   0  0  0  0  0  0  0  0  0  0  0  0
   -7.8715    3.0806  -24.3383 C   0  0  0  0  0  0  0  0  0  0  0  0
   -7.2711    1.9100  -23.6178 C   0  0  0  0  0  0  0  0  0  0  0  0
   -9.5138   -0.0551  -23.3273 C   0  0  0  0  0  0  0  0  0  0  0  0
  -10.8455    0.3431  -23.8912 C   0  0  0  0  0  0  0  0  0  0  0  0
  -12.0150   -0.5897  -23.7830 C   0  0  0  0  0  0  0  0  0  0  0  0
  -13.3468   -0.1915  -24.3469 Cl  0  0  0  0  0  0  0  0  0  0  0  0
  -11.8530   -1.9209  -23.1108 C   0  0  0  0  0  0  0  0  0  0  0  0
  -10.5213   -2.3192  -22.5469 C   0  0  0  0  0  0  0  0  0  0  0  0
   -9.3517   -1.3863  -22.6552 C   0  0  0  0  0  0  0  0  0  0  0  0
   -8.0200   -1.7845  -22.0913 C   0  0  0  0  0  0  0  0  0  0  0  0
   -7.8579   -3.1157  -21.4191 O   0  0  0  0  0  0  0  0  0  0  0  0
  -10.2956    3.6674  -25.2998 C   0  0  0  0  0  0  0  0  0  0  0  0
  -10.1375    3.9554  -26.7634 C   0  0  0  0  0  0  0  0  0  0  0  0
  -11.1175    4.8508  -27.4618 N   0  0  0  0  0  0  0  0  0  0  0  0
  -12.2556    5.4583  -26.6966 C   0  0  0  0  0  0  0  0  0  0  0  0
  -12.4137    5.1703  -25.2330 C   0  0  0  0  0  0  0  0  0  0  0  0
  -13.5520    5.7779  -24.4677 C   0  0  0  0  0  0  0  0  0  0  0  0
  -13.7100    5.4899  -23.0042 C   0  0  0  0  0  0  0  0  0  0  0  0
  -12.7300    4.5944  -22.3058 C   0  0  0  0  0  0  0  0  0  0  0  0
  -11.5919    3.9869  -23.0710 C   0  0  0  0  0  0  0  0  0  0  0  0
  -11.4338    4.2749  -24.5346 C   0  0  0  0  0  0  0  0  0  0  0  0
   -5.8476    1.7922  -23.1599 C   0  0  0  0  0  0  0  0  0  0  0  0
   -4.8236    2.7815  -23.6317 O   0  0  0  0  0  0  0  0  0  0  0  0
   -3.9031    2.7053  -23.3356 H   0  0  0  0  0  0  0  0  0  0  0  0
   -5.5186   -1.2499  -21.6356 C   0  0  0  0  0  0  0  0  0  0  0  0
   -4.9496    0.1909  -17.9818 C   0  0  0  0  0  0  0  0  0  0  0  0
   -5.1846    0.1338  -19.4622 N   0  0  0  0  0  0  0  0  0  0  0  0
   -5.2837   -1.1928  -20.1552 C   0  0  0  0  0  0  0  0  0  0  0  0
   -5.1477   -2.4623  -19.3679 O   0  0  0  0  0  0  0  0  0  0  0  0
   -5.2738    0.9670  -19.9789 H   0  0  0  0  0  0  0  0  0  0  0  0
 32 33  1  0  0  0
 33 34  1  0  0  0
 34 35  2  0  0  0
 34 31  1  0  0  0
 31  1  1  0  0  0
  1  2  1  0  0  0
  3  2  1  0  0  0
  3  4  1  0  0  0
  4  5  2  0  0  0
  4  6  1  0  0  0
  6 18  1  0  0  0
 18 19  2  0  0  0
 19 20  1  0  0  0
 20 21  2  0  0  0
 21 22  1  0  0  0
 22 23  2  0  0  0
 23 24  1  0  0  0
 24 25  2  0  0  0
 25 26  1  0  0  0
 26 27  2  0  0  0
  6  7  1  0  0  0
  7  8  1  0  0  0
  8 28  1  0  0  0
 28 29  1  0  0  0
  3  9  1  0  0  0
  9 10  2  0  0  0
 10 11  1  0  0  0
 11 12  1  0  0  0
 11 13  2  0  0  0
 13 14  1  0  0  0
 14 15  2  0  0  0
 15 16  1  0  0  0
 16 17  2  0  0  0
 16  1  1  0  0  0
  8  3  1  0  0  0
 15  9  1  0  0  0
 27 18  1  0  0  0
 27 22  1  0  0  0
 33 36  1  0  0  0
 29 30  1  0  0  0
M  END
> <minimizedAffinity>
-7.21659

> <CNNscore>
0.4434015751

> <CNNaffinity>
6.0774745941

> <CNN_VS>
2.6947617531

> <CNNaffinity_variance>
0.0424520895

$$$$



 36 40  0  0  0  0  0  0  0  0999 V2000
   -5.5199   -6.3319  -23.7786 N   0  0  0  0  0  0  0  0  0  0  0  0
   -6.0609   -5.0781  -23.1579 C   0  0  0  0  0  0  0  0  0  0  0  0
   -7.0801   -4.2575  -23.8913 C   0  0  0  0  0  0  0  0  0  0  0  0
   -8.0974   -3.3395  -24.5015 C   0  0  0  0  0  0  0  0  0  0  0  0
   -8.7654   -3.2295  -25.5105 O   0  0  0  0  0  0  0  0  0  0  0  0
   -8.3448   -2.2162  -23.5387 N   0  0  0  0  0  0  0  0  0  0  0  0
   -7.4804   -2.4399  -22.3334 C   0  0  0  0  0  0  0  0  0  0  0  0
   -6.6987   -3.7015  -22.5513 C   0  0  0  0  0  0  0  0  0  0  0  0
   -7.5582   -4.6906  -25.2455 C   0  0  0  0  0  0  0  0  0  0  0  0
   -8.5773   -3.8700  -25.9789 C   0  0  0  0  0  0  0  0  0  0  0  0
   -9.0554   -4.3031  -27.3331 C   0  0  0  0  0  0  0  0  0  0  0  0
  -10.0746   -3.4825  -28.0665 Cl  0  0  0  0  0  0  0  0  0  0  0  0
   -8.5144   -5.5569  -27.9538 C   0  0  0  0  0  0  0  0  0  0  0  0
   -7.4953   -6.3775  -27.2204 C   0  0  0  0  0  0  0  0  0  0  0  0
   -7.0172   -5.9444  -25.8662 C   0  0  0  0  0  0  0  0  0  0  0  0
   -5.9980   -6.7650  -25.1328 C   0  0  0  0  0  0  0  0  0  0  0  0
   -5.4570   -8.0188  -25.7535 O   0  0  0  0  0  0  0  0  0  0  0  0
   -9.2906   -1.0704  -23.7450 C   0  0  0  0  0  0  0  0  0  0  0  0
   -8.7860    0.2277  -24.3022 C   0  0  0  0  0  0  0  0  0  0  0  0
   -9.7318    1.3735  -24.5085 N   0  0  0  0  0  0  0  0  0  0  0  0
  -11.1822    1.2213  -24.1576 C   0  0  0  0  0  0  0  0  0  0  0  0
  -11.6868   -0.0768  -23.6003 C   0  0  0  0  0  0  0  0  0  0  0  0
  -13.1373   -0.2290  -23.2494 C   0  0  0  0  0  0  0  0  0  0  0  0
  -13.6418   -1.5271  -22.6922 C   0  0  0  0  0  0  0  0  0  0  0  0
  -12.6960   -2.6729  -22.4859 C   0  0  0  0  0  0  0  0  0  0  0  0
  -11.2456   -2.5207  -22.8368 C   0  0  0  0  0  0  0  0  0  0  0  0
  -10.7410   -1.2226  -23.3941 C   0  0  0  0  0  0  0  0  0  0  0  0
   -5.7094   -4.3017  -21.5968 C   0  0  0  0  0  0  0  0  0  0  0  0
   -4.9931   -3.4274  -20.6108 O   0  0  0  0  0  0  0  0  0  0  0  0
   -4.3534   -3.8155  -19.9936 H   0  0  0  0  0  0  0  0  0  0  0  0
   -4.5008   -7.1525  -23.0451 C   0  0  0  0  0  0  0  0  0  0  0  0
   -0.6236   -7.9803  -23.2249 C   0  0  0  0  0  0  0  0  0  0  0  0
   -2.0570   -7.9948  -22.7832 N   0  0  0  0  0  0  0  0  0  0  0  0
   -3.0674   -7.1380  -23.4868 C   0  0  0  0  0  0  0  0  0  0  0  0
   -2.6443   -6.2666  -24.6322 O   0  0  0  0  0  0  0  0  0  0  0  0
   -2.3347   -8.5667  -22.0315 H   0  0  0  0  0  0  0  0  0  0  0  0
 32 33  1  0  0  0
 33 34  1  0  0  0
 34 35  2  0  0  0
 34 31  1  0  0  0
 31  1  1  0  0  0
  1  2  1  0  0  0
  3  2  1  0  0  0
  3  4  1  0  0  0
  4  5  2  0  0  0
  4  6  1  0  0  0
  6 18  1  0  0  0
 18 19  2  0  0  0
 19 20  1  0  0  0
 20 21  2  0  0  0
 21 22  1  0  0  0
 22 23  2  0  0  0
 23 24  1  0  0  0
 24 25  2  0  0  0
 25 26  1  0  0  0
 26 27  2  0  0  0
  6  7  1  0  0  0
  7  8  1  0  0  0
  8 28  1  0  0  0
 28 29  1  0  0  0
  3  9  1  0  0  0
  9 10  2  0  0  0
 10 11  1  0  0  0
 11 12  1  0  0  0
 11 13  2  0  0  0
 13 14  1  0  0  0
 14 15  2  0  0  0
 15 16  1  0  0  0
 16 17  2  0  0  0
 16  1  1  0  0  0
  8  3  1  0  0  0
 15  9  1  0  0  0
 27 18  1  0  0  0
 27 22  1  0  0  0
 33 36  1  0  0  0
 29 30  1  0  0  0
M  END
> <minimizedAffinity>
-7.13184

> <CNNscore>
0.4214552641

> <CNNaffinity>
6.2734818459

> <CNN_VS>
2.6439919472

> <CNNaffinity_variance>
0.0393002145

$$$$



 36 40  0  0  0  0  0  0  0  0999 V2000
  -11.5948    3.9023  -24.0226 N   0  0  0  0  0  0  0  0  0  0  0  0
  -10.2103    3.3351  -23.9146 C   0  0  0  0  0  0  0  0  0  0  0  0
  -10.0181    1.8702  -23.6561 C   0  0  0  0  0  0  0  0  0  0  0  0
   -9.6713    0.4332  -23.4016 C   0  0  0  0  0  0  0  0  0  0  0  0
  -10.2160   -0.6371  -23.2168 O   0  0  0  0  0  0  0  0  0  0  0  0
   -8.1763    0.3153  -23.3719 N   0  0  0  0  0  0  0  0  0  0  0  0
   -7.5990    1.6794  -23.6081 C   0  0  0  0  0  0  0  0  0  0  0  0
   -8.7373    2.6404  -23.7838 C   0  0  0  0  0  0  0  0  0  0  0  0
  -11.2103    0.9723  -23.5055 C   0  0  0  0  0  0  0  0  0  0  0  0
  -11.0180   -0.4927  -23.2470 C   0  0  0  0  0  0  0  0  0  0  0  0
  -12.2101   -1.3904  -23.0964 C   0  0  0  0  0  0  0  0  0  0  0  0
  -12.0179   -2.8555  -22.8379 Cl  0  0  0  0  0  0  0  0  0  0  0  0
  -13.5946   -0.8232  -23.2043 C   0  0  0  0  0  0  0  0  0  0  0  0
  -13.7869    0.6417  -23.4628 C   0  0  0  0  0  0  0  0  0  0  0  0
  -12.5947    1.5395  -23.6134 C   0  0  0  0  0  0  0  0  0  0  0  0
  -12.7869    3.0045  -23.8720 C   0  0  0  0  0  0  0  0  0  0  0  0
  -14.1714    3.5717  -23.9799 O   0  0  0  0  0  0  0  0  0  0  0  0
   -7.3956   -0.9455  -23.1458 C   0  0  0  0  0  0  0  0  0  0  0  0
   -7.1640   -1.8981  -24.2810 C   0  0  0  0  0  0  0  0  0  0  0  0
   -6.3834   -3.1588  -24.0549 N   0  0  0  0  0  0  0  0  0  0  0  0
   -5.8343   -3.4669  -22.6934 C   0  0  0  0  0  0  0  0  0  0  0  0
   -6.0658   -2.5142  -21.5582 C   0  0  0  0  0  0  0  0  0  0  0  0
   -5.5167   -2.8223  -20.1966 C   0  0  0  0  0  0  0  0  0  0  0  0
   -5.7483   -1.8696  -19.0614 C   0  0  0  0  0  0  0  0  0  0  0  0
   -6.5290   -0.6089  -19.2876 C   0  0  0  0  0  0  0  0  0  0  0  0
   -7.0781   -0.3009  -20.6490 C   0  0  0  0  0  0  0  0  0  0  0  0
   -6.8465   -1.2535  -21.7843 C   0  0  0  0  0  0  0  0  0  0  0  0
   -8.6160    4.1130  -24.0417 C   0  0  0  0  0  0  0  0  0  0  0  0
   -7.2780    4.7108  -24.3615 O   0  0  0  0  0  0  0  0  0  0  0  0
   -7.1997    5.6631  -24.5284 H   0  0  0  0  0  0  0  0  0  0  0  0
  -11.7870    5.3674  -24.2811 C   0  0  0  0  0  0  0  0  0  0  0  0
  -13.9603    6.4038  -27.4358 C   0  0  0  0  0  0  0  0  0  0  0  0
  -13.5944    5.9264  -26.0617 N   0  0  0  0  0  0  0  0  0  0  0  0
  -12.1529    5.8448  -25.6552 C   0  0  0  0  0  0  0  0  0  0  0  0
  -11.0772    6.2405  -26.6229 O   0  0  0  0  0  0  0  0  0  0  0  0
  -14.3004    5.6667  -25.4266 H   0  0  0  0  0  0  0  0  0  0  0  0
 32 33  1  0  0  0
 33 34  1  0  0  0
 34 35  2  0  0  0
 34 31  1  0  0  0
 31  1  1  0  0  0
  1  2  1  0  0  0
  3  2  1  0  0  0
  3  4  1  0  0  0
  4  5  2  0  0  0
  4  6  1  0  0  0
  6 18  1  0  0  0
 18 19  2  0  0  0
 19 20  1  0  0  0
 20 21  2  0  0  0
 21 22  1  0  0  0
 22 23  2  0  0  0
 23 24  1  0  0  0
 24 25  2  0  0  0
 25 26  1  0  0  0
 26 27  2  0  0  0
  6  7  1  0  0  0
  7  8  1  0  0  0
  8 28  1  0  0  0
 28 29  1  0  0  0
  3  9  1  0  0  0
  9 10  2  0  0  0
 10 11  1  0  0  0
 11 12  1  0  0  0
 11 13  2  0  0  0
 13 14  1  0  0  0
 14 15  2  0  0  0
 15 16  1  0  0  0
 16 17  2  0  0  0
 16  1  1  0  0  0
  8  3  1  0  0  0
 15  9  1  0  0  0
 27 18  1  0  0  0
 27 22  1  0  0  0
 33 36  1  0  0  0
 29 30  1  0  0  0
M  END
> <minimizedAffinity>
-7.90752

> <CNNscore>
0.3567380607

> <CNNaffinity>
6.1316318512

> <CNN_VS>
2.1873865128

> <CNNaffinity_variance>
0.0845376998

$$$$



 36 40  0  0  0  0  0  0  0  0999 V2000
   -6.6236   -0.1178  -22.3431 N   0  0  0  0  0  0  0  0  0  0  0  0
   -7.0282    1.2629  -22.7674 C   0  0  0  0  0  0  0  0  0  0  0  0
   -8.4433    1.5350  -23.1840 C   0  0  0  0  0  0  0  0  0  0  0  0
   -9.8140    1.9559  -23.6244 C   0  0  0  0  0  0  0  0  0  0  0  0
  -10.9227    1.4877  -23.7912 O   0  0  0  0  0  0  0  0  0  0  0  0
   -9.7661    3.4182  -23.9549 N   0  0  0  0  0  0  0  0  0  0  0  0
   -8.3657    3.9012  -23.7188 C   0  0  0  0  0  0  0  0  0  0  0  0
   -7.5482    2.7373  -23.2423 C   0  0  0  0  0  0  0  0  0  0  0  0
   -9.4538    0.4264  -23.1763 C   0  0  0  0  0  0  0  0  0  0  0  0
  -10.8688    0.6985  -23.5930 C   0  0  0  0  0  0  0  0  0  0  0  0
  -11.8792   -0.4100  -23.5853 C   0  0  0  0  0  0  0  0  0  0  0  0
  -13.2943   -0.1380  -24.0019 Cl  0  0  0  0  0  0  0  0  0  0  0  0
  -11.4746   -1.7907  -23.1610 C   0  0  0  0  0  0  0  0  0  0  0  0
  -10.0596   -2.0628  -22.7444 C   0  0  0  0  0  0  0  0  0  0  0  0
   -9.0492   -0.9543  -22.7521 C   0  0  0  0  0  0  0  0  0  0  0  0
   -7.6340   -1.2264  -22.3354 C   0  0  0  0  0  0  0  0  0  0  0  0
   -7.2294   -2.6070  -21.9112 O   0  0  0  0  0  0  0  0  0  0  0  0
  -10.9166    4.2513  -24.4370 C   0  0  0  0  0  0  0  0  0  0  0  0
  -11.8606    4.8698  -23.4489 C   0  0  0  0  0  0  0  0  0  0  0  0
  -13.0111    5.7029  -23.9309 N   0  0  0  0  0  0  0  0  0  0  0  0
  -13.2175    5.9175  -25.4010 C   0  0  0  0  0  0  0  0  0  0  0  0
  -12.2734    5.2991  -26.3891 C   0  0  0  0  0  0  0  0  0  0  0  0
  -12.4799    5.5137  -27.8593 C   0  0  0  0  0  0  0  0  0  0  0  0
  -11.5358    4.8952  -28.8473 C   0  0  0  0  0  0  0  0  0  0  0  0
  -10.3854    4.0621  -28.3653 C   0  0  0  0  0  0  0  0  0  0  0  0
  -10.1789    3.8475  -26.8952 C   0  0  0  0  0  0  0  0  0  0  0  0
  -11.1230    4.4660  -25.9071 C   0  0  0  0  0  0  0  0  0  0  0  0
   -6.0913    2.7699  -22.8867 C   0  0  0  0  0  0  0  0  0  0  0  0
   -5.5980    3.7144  -21.8311 O   0  0  0  0  0  0  0  0  0  0  0  0
   -4.6559    3.7355  -21.6011 H   0  0  0  0  0  0  0  0  0  0  0  0
   -5.2085   -0.3899  -21.9265 C   0  0  0  0  0  0  0  0  0  0  0  0
   -5.2051    0.0781  -17.9855 C   0  0  0  0  0  0  0  0  0  0  0  0
   -5.6602   -0.2749  -19.3706 N   0  0  0  0  0  0  0  0  0  0  0  0
   -4.7534   -0.0368  -20.5415 C   0  0  0  0  0  0  0  0  0  0  0  0
   -3.3915    0.5543  -20.3274 O   0  0  0  0  0  0  0  0  0  0  0  0
   -6.5540   -0.6629  -19.5111 H   0  0  0  0  0  0  0  0  0  0  0  0
 32 33  1  0  0  0
 33 34  1  0  0  0
 34 35  2  0  0  0
 34 31  1  0  0  0
 31  1  1  0  0  0
  1  2  1  0  0  0
  3  2  1  0  0  0
  3  4  1  0  0  0
  4  5  2  0  0  0
  4  6  1  0  0  0
  6 18  1  0  0  0
 18 19  2  0  0  0
 19 20  1  0  0  0
 20 21  2  0  0  0
 21 22  1  0  0  0
 22 23  2  0  0  0
 23 24  1  0  0  0
 24 25  2  0  0  0
 25 26  1  0  0  0
 26 27  2  0  0  0
  6  7  1  0  0  0
  7  8  1  0  0  0
  8 28  1  0  0  0
 28 29  1  0  0  0
  3  9  1  0  0  0
  9 10  2  0  0  0
 10 11  1  0  0  0
 11 12  1  0  0  0
 11 13  2  0  0  0
 13 14  1  0  0  0
 14 15  2  0  0  0
 15 16  1  0  0  0
 16 17  2  0  0  0
 16  1  1  0  0  0
  8  3  1  0  0  0
 15  9  1  0  0  0
 27 18  1  0  0  0
 27 22  1  0  0  0
 33 36  1  0  0  0
 29 30  1  0  0  0
M  END
> <minimizedAffinity>
-8.24469

> <CNNscore>
0.2845426500

> <CNNaffinity>
5.8618083000

> <CNN_VS>
1.6679344177

> <CNNaffinity_variance>
0.1693127453

$$$$



 36 40  0  0  0  0  0  0  0  0999 V2000
   -7.5730   -3.3878  -26.4247 N   0  0  0  0  0  0  0  0  0  0  0  0
   -7.1138   -3.5375  -25.0046 C   0  0  0  0  0  0  0  0  0  0  0  0
   -6.9369   -2.3235  -24.1416 C   0  0  0  0  0  0  0  0  0  0  0  0
   -6.7162   -1.2074  -23.1640 C   0  0  0  0  0  0  0  0  0  0  0  0
   -6.7913    0.0037  -23.1015 O   0  0  0  0  0  0  0  0  0  0  0  0
   -6.2607   -1.8097  -21.8679 N   0  0  0  0  0  0  0  0  0  0  0  0
   -6.1999   -3.2980  -22.0445 C   0  0  0  0  0  0  0  0  0  0  0  0
   -6.6178   -3.6155  -23.4497 C   0  0  0  0  0  0  0  0  0  0  0  0
   -7.2192   -0.9596  -24.6987 C   0  0  0  0  0  0  0  0  0  0  0  0
   -7.0423    0.2544  -23.8357 C   0  0  0  0  0  0  0  0  0  0  0  0
   -7.3246    1.6182  -24.3928 C   0  0  0  0  0  0  0  0  0  0  0  0
   -7.1477    2.8323  -23.5299 Cl  0  0  0  0  0  0  0  0  0  0  0  0
   -7.7837    1.7679  -25.8130 C   0  0  0  0  0  0  0  0  0  0  0  0
   -7.9606    0.5539  -26.6759 C   0  0  0  0  0  0  0  0  0  0  0  0
   -7.6784   -0.8099  -26.1188 C   0  0  0  0  0  0  0  0  0  0  0  0
   -7.8553   -2.0240  -26.9818 C   0  0  0  0  0  0  0  0  0  0  0  0
   -8.3145   -1.8743  -28.4019 O   0  0  0  0  0  0  0  0  0  0  0  0
   -5.9250   -1.0560  -20.6152 C   0  0  0  0  0  0  0  0  0  0  0  0
   -6.7636   -1.2352  -19.3845 C   0  0  0  0  0  0  0  0  0  0  0  0
   -6.4279   -0.4815  -18.1319 N   0  0  0  0  0  0  0  0  0  0  0  0
   -5.2535    0.4514  -18.1099 C   0  0  0  0  0  0  0  0  0  0  0  0
   -4.4149    0.6306  -19.3406 C   0  0  0  0  0  0  0  0  0  0  0  0
   -3.2405    1.5637  -19.3186 C   0  0  0  0  0  0  0  0  0  0  0  0
   -2.4019    1.7428  -20.5493 C   0  0  0  0  0  0  0  0  0  0  0  0
   -2.7377    0.9891  -21.8020 C   0  0  0  0  0  0  0  0  0  0  0  0
   -3.9120    0.0562  -21.8240 C   0  0  0  0  0  0  0  0  0  0  0  0
   -4.7506   -0.1231  -20.5933 C   0  0  0  0  0  0  0  0  0  0  0  0
   -6.7018   -4.9848  -24.0564 C   0  0  0  0  0  0  0  0  0  0  0  0
   -7.6026   -6.0197  -23.4504 O   0  0  0  0  0  0  0  0  0  0  0  0
   -7.6569   -6.9051  -23.8428 H   0  0  0  0  0  0  0  0  0  0  0  0
   -7.7499   -4.6019  -27.2877 C   0  0  0  0  0  0  0  0  0  0  0  0
   -9.5634   -7.8779  -25.9729 C   0  0  0  0  0  0  0  0  0  0  0  0
   -8.4845   -6.8846  -26.2879 N   0  0  0  0  0  0  0  0  0  0  0  0
   -8.8288   -5.5952  -26.9726 C   0  0  0  0  0  0  0  0  0  0  0  0
  -10.2521   -5.2991  -27.3423 O   0  0  0  0  0  0  0  0  0  0  0  0
   -7.5504   -7.0790  -26.0453 H   0  0  0  0  0  0  0  0  0  0  0  0
 32 33  1  0  0  0
 33 34  1  0  0  0
 34 35  2  0  0  0
 34 31  1  0  0  0
 31  1  1  0  0  0
  1  2  1  0  0  0
  3  2  1  0  0  0
  3  4  1  0  0  0
  4  5  2  0  0  0
  4  6  1  0  0  0
  6 18  1  0  0  0
 18 19  2  0  0  0
 19 20  1  0  0  0
 20 21  2  0  0  0
 21 22  1  0  0  0
 22 23  2  0  0  0
 23 24  1  0  0  0
 24 25  2  0  0  0
 25 26  1  0  0  0
 26 27  2  0  0  0
  6  7  1  0  0  0
  7  8  1  0  0  0
  8 28  1  0  0  0
 28 29  1  0  0  0
  3  9  1  0  0  0
  9 10  2  0  0  0
 10 11  1  0  0  0
 11 12  1  0  0  0
 11 13  2  0  0  0
 13 14  1  0  0  0
 14 15  2  0  0  0
 15 16  1  0  0  0
 16 17  2  0  0  0
 16  1  1  0  0  0
  8  3  1  0  0  0
 15  9  1  0  0  0
 27 18  1  0  0  0
 27 22  1  0  0  0
 33 36  1  0  0  0
 29 30  1  0  0  0
M  END
> <minimizedAffinity>
-7.32254

> <CNNscore>
0.2681936324

> <CNNaffinity>
5.9689531326

> <CNN_VS>
1.6008352041

> <CNNaffinity_variance>
0.0515723005

$$$$



 36 40  0  0  0  0  0  0  0  0999 V2000
   -9.5747   -2.0985  -23.5360 N   0  0  0  0  0  0  0  0  0  0  0  0
   -8.2095   -2.1682  -22.9183 C   0  0  0  0  0  0  0  0  0  0  0  0
   -7.4580   -0.9060  -22.6154 C   0  0  0  0  0  0  0  0  0  0  0  0
   -6.5912    0.2648  -22.2580 C   0  0  0  0  0  0  0  0  0  0  0  0
   -6.6039    1.4792  -22.2985 O   0  0  0  0  0  0  0  0  0  0  0  0
   -5.3174   -0.2643  -21.6683 N   0  0  0  0  0  0  0  0  0  0  0  0
   -5.3971   -1.7622  -21.6614 C   0  0  0  0  0  0  0  0  0  0  0  0
   -6.7200   -2.1587  -22.2467 C   0  0  0  0  0  0  0  0  0  0  0  0
   -8.0716    0.4262  -22.9303 C   0  0  0  0  0  0  0  0  0  0  0  0
   -7.3201    1.6885  -22.6275 C   0  0  0  0  0  0  0  0  0  0  0  0
   -7.9337    3.0205  -22.9423 C   0  0  0  0  0  0  0  0  0  0  0  0
   -7.1821    4.2829  -22.6395 Cl  0  0  0  0  0  0  0  0  0  0  0  0
   -9.2988    3.0902  -23.5601 C   0  0  0  0  0  0  0  0  0  0  0  0
  -10.0503    1.8279  -23.8629 C   0  0  0  0  0  0  0  0  0  0  0  0
   -9.4367    0.4959  -23.5480 C   0  0  0  0  0  0  0  0  0  0  0  0
  -10.1883   -0.7665  -23.8509 C   0  0  0  0  0  0  0  0  0  0  0  0
  -11.5534   -0.6968  -24.4686 O   0  0  0  0  0  0  0  0  0  0  0  0
   -4.1662    0.5597  -21.1727 C   0  0  0  0  0  0  0  0  0  0  0  0
   -4.1610    1.0690  -19.7618 C   0  0  0  0  0  0  0  0  0  0  0  0
   -3.0098    1.8930  -19.2661 N   0  0  0  0  0  0  0  0  0  0  0  0
   -1.8638    2.2078  -20.1814 C   0  0  0  0  0  0  0  0  0  0  0  0
   -1.8691    1.6986  -21.5923 C   0  0  0  0  0  0  0  0  0  0  0  0
   -0.7231    2.0134  -22.5076 C   0  0  0  0  0  0  0  0  0  0  0  0
   -0.7285    1.5041  -23.9185 C   0  0  0  0  0  0  0  0  0  0  0  0
   -1.8797    0.6801  -24.4141 C   0  0  0  0  0  0  0  0  0  0  0  0
   -3.0256    0.3653  -23.4989 C   0  0  0  0  0  0  0  0  0  0  0  0
   -3.0203    0.8745  -22.0879 C   0  0  0  0  0  0  0  0  0  0  0  0
   -7.2176   -3.5617  -22.4310 C   0  0  0  0  0  0  0  0  0  0  0  0
   -6.2423   -4.6821  -22.6394 O   0  0  0  0  0  0  0  0  0  0  0  0
   -6.5642   -5.5894  -22.7585 H   0  0  0  0  0  0  0  0  0  0  0  0
  -10.3262   -3.3609  -23.8388 C   0  0  0  0  0  0  0  0  0  0  0  0
  -10.4636   -6.0604  -26.7446 C   0  0  0  0  0  0  0  0  0  0  0  0
  -10.5649   -5.4352  -25.3849 N   0  0  0  0  0  0  0  0  0  0  0  0
  -10.2250   -3.9862  -25.1985 C   0  0  0  0  0  0  0  0  0  0  0  0
   -9.7838   -3.1623  -26.3719 O   0  0  0  0  0  0  0  0  0  0  0  0
  -10.8544   -5.9759  -24.6148 H   0  0  0  0  0  0  0  0  0  0  0  0
 32 33  1  0  0  0
 33 34  1  0  0  0
 34 35  2  0  0  0
 34 31  1  0  0  0
 31  1  1  0  0  0
  1  2  1  0  0  0
  3  2  1  0  0  0
  3  4  1  0  0  0
  4  5  2  0  0  0
  4  6  1  0  0  0
  6 18  1  0  0  0
 18 19  2  0  0  0
 19 20  1  0  0  0
 20 21  2  0  0  0
 21 22  1  0  0  0
 22 23  2  0  0  0
 23 24  1  0  0  0
 24 25  2  0  0  0
 25 26  1  0  0  0
 26 27  2  0  0  0
  6  7  1  0  0  0
  7  8  1  0  0  0
  8 28  1  0  0  0
 28 29  1  0  0  0
  3  9  1  0  0  0
  9 10  2  0  0  0
 10 11  1  0  0  0
 11 12  1  0  0  0
 11 13  2  0  0  0
 13 14  1  0  0  0
 14 15  2  0  0  0
 15 16  1  0  0  0
 16 17  2  0  0  0
 16  1  1  0  0  0
  8  3  1  0  0  0
 15  9  1  0  0  0
 27 18  1  0  0  0
 27 22  1  0  0  0
 33 36  1  0  0  0
 29 30  1  0  0  0
M  END
> <minimizedAffinity>
-7.30930

> <CNNscore>
0.2184033990

> <CNNaffinity>
5.7390236855

> <CNN_VS>
1.2534222603

> <CNNaffinity_variance>
0.1053123102

$$$$



 36 40  0  0  0  0  0  0  0  0999 V2000
   -6.1262    0.6240  -20.9792 N   0  0  0  0  0  0  0  0  0  0  0  0
   -6.4921    1.8094  -21.8225 C   0  0  0  0  0  0  0  0  0  0  0  0
   -7.7533    1.7917  -22.6343 C   0  0  0  0  0  0  0  0  0  0  0  0
   -8.9756    1.9183  -23.4944 C   0  0  0  0  0  0  0  0  0  0  0  0
   -9.9611    1.2819  -23.8108 O   0  0  0  0  0  0  0  0  0  0  0  0
   -8.9388    3.2634  -24.1572 N   0  0  0  0  0  0  0  0  0  0  0  0
   -7.6936    3.9682  -23.7067 C   0  0  0  0  0  0  0  0  0  0  0  0
   -6.9610    3.0586  -22.7655 C   0  0  0  0  0  0  0  0  0  0  0  0
   -8.6487    0.5887  -22.6028 C   0  0  0  0  0  0  0  0  0  0  0  0
   -9.9099    0.5710  -23.4146 C   0  0  0  0  0  0  0  0  0  0  0  0
  -10.8053   -0.6320  -23.3831 C   0  0  0  0  0  0  0  0  0  0  0  0
  -12.0665   -0.6497  -24.1949 Cl  0  0  0  0  0  0  0  0  0  0  0  0
  -10.4394   -1.8173  -22.5398 C   0  0  0  0  0  0  0  0  0  0  0  0
   -9.1783   -1.7997  -21.7280 C   0  0  0  0  0  0  0  0  0  0  0  0
   -8.2829   -0.5967  -21.7595 C   0  0  0  0  0  0  0  0  0  0  0  0
   -7.0216   -0.5790  -20.9477 C   0  0  0  0  0  0  0  0  0  0  0  0
   -6.6558   -1.7643  -20.1044 O   0  0  0  0  0  0  0  0  0  0  0  0
   -9.9666    3.8081  -25.1043 C   0  0  0  0  0  0  0  0  0  0  0  0
   -9.7140    3.7799  -26.5826 C   0  0  0  0  0  0  0  0  0  0  0  0
  -10.7418    4.3246  -27.5296 N   0  0  0  0  0  0  0  0  0  0  0  0
  -12.0223    4.8974  -26.9983 C   0  0  0  0  0  0  0  0  0  0  0  0
  -12.2749    4.9256  -25.5200 C   0  0  0  0  0  0  0  0  0  0  0  0
  -13.5554    5.4985  -24.9887 C   0  0  0  0  0  0  0  0  0  0  0  0
  -13.8079    5.5266  -23.5104 C   0  0  0  0  0  0  0  0  0  0  0  0
  -12.7801    4.9819  -22.5633 C   0  0  0  0  0  0  0  0  0  0  0  0
  -11.4996    4.4091  -23.0946 C   0  0  0  0  0  0  0  0  0  0  0  0
  -11.2470    4.3809  -24.5730 C   0  0  0  0  0  0  0  0  0  0  0  0
   -5.6637    3.3626  -22.0765 C   0  0  0  0  0  0  0  0  0  0  0  0
   -5.1201    4.7606  -22.0840 O   0  0  0  0  0  0  0  0  0  0  0  0
   -4.2812    4.9571  -21.6384 H   0  0  0  0  0  0  0  0  0  0  0  0
   -4.8650    0.6418  -20.1674 C   0  0  0  0  0  0  0  0  0  0  0  0
   -1.8917    3.2496  -20.4976 C   0  0  0  0  0  0  0  0  0  0  0  0
   -3.1102    2.5480  -19.9750 N   0  0  0  0  0  0  0  0  0  0  0  0
   -3.6465    1.3434  -20.6900 C   0  0  0  0  0  0  0  0  0  0  0  0
   -2.9643    0.8403  -21.9276 O   0  0  0  0  0  0  0  0  0  0  0  0
   -3.5579    2.8781  -19.1627 H   0  0  0  0  0  0  0  0  0  0  0  0
 32 33  1  0  0  0
 33 34  1  0  0  0
 34 35  2  0  0  0
 34 31  1  0  0  0
 31  1  1  0  0  0
  1  2  1  0  0  0
  3  2  1  0  0  0
  3  4  1  0  0  0
  4  5  2  0  0  0
  4  6  1  0  0  0
  6 18  1  0  0  0
 18 19  2  0  0  0
 19 20  1  0  0  0
 20 21  2  0  0  0
 21 22  1  0  0  0
 22 23  2  0  0  0
 23 24  1  0  0  0
 24 25  2  0  0  0
 25 26  1  0  0  0
 26 27  2  0  0  0
  6  7  1  0  0  0
  7  8  1  0  0  0
  8 28  1  0  0  0
 28 29  1  0  0  0
  3  9  1  0  0  0
  9 10  2  0  0  0
 10 11  1  0  0  0
 11 12  1  0  0  0
 11 13  2  0  0  0
 13 14  1  0  0  0
 14 15  2  0  0  0
 15 16  1  0  0  0
 16 17  2  0  0  0
 16  1  1  0  0  0
  8  3  1  0  0  0
 15  9  1  0  0  0
 27 18  1  0  0  0
 27 22  1  0  0  0
 33 36  1  0  0  0
 29 30  1  0  0  0
M  END
> <minimizedAffinity>
-8.01171

> <CNNscore>
0.1648756415

> <CNNaffinity>
5.5198564529

> <CNN_VS>
0.9100898504

> <CNNaffinity_variance>
0.2419437170

$$$$
