


 35 40  0  0  0  0  0  0  0  0999 V2000
    7.3818   -3.3413   23.3158 C   0  0  0  0  0  0  0  0  0  0  0  0
    7.5529   -2.0328   22.6025 C   0  0  0  0  0  0  0  0  0  0  0  0
    6.4529   -1.7840   21.6135 C   0  0  0  0  0  0  0  0  0  0  0  0
    6.7111   -0.4607   20.9562 N   0  0  0  0  0  0  0  0  0  0  0  0
    7.9708    0.1083   21.5389 C   0  0  0  0  0  0  0  0  0  0  0  0
    8.5997    1.4189   21.1691 O   0  0  0  0  0  0  0  0  0  0  0  0
    8.4910   -0.8633   22.5564 C   0  0  0  0  0  0  0  0  0  0  0  0
    9.3350    0.3669   22.4003 C   0  0  0  0  0  0  0  0  0  0  0  0
   10.5755    0.5352   23.2265 N   0  0  0  0  0  0  0  0  0  0  0  0
   10.9721   -0.5266   24.2089 C   0  0  0  0  0  0  0  0  0  0  0  0
   12.2127   -0.3583   25.0351 O   0  0  0  0  0  0  0  0  0  0  0  0
   10.1282   -1.7569   24.3650 C   0  0  0  0  0  0  0  0  0  0  0  0
   10.5249   -2.8188   25.3474 C   0  0  0  0  0  0  0  0  0  0  0  0
    9.6810   -4.0489   25.5035 C   0  0  0  0  0  0  0  0  0  0  0  0
    8.4404   -4.2173   24.6773 C   0  0  0  0  0  0  0  0  0  0  0  0
    7.5965   -5.4476   24.8334 F   0  0  0  0  0  0  0  0  0  0  0  0
    8.0438   -3.1554   23.6949 C   0  0  0  0  0  0  0  0  0  0  0  0
    8.8877   -1.9252   23.5388 C   0  0  0  0  0  0  0  0  0  0  0  0
    5.8593    0.1810   19.9014 C   0  0  0  0  0  0  0  0  0  0  0  0
    6.0770   -0.1536   18.4556 C   0  0  0  0  0  0  0  0  0  0  0  0
    5.2252    0.4881   17.4007 N   0  0  0  0  0  0  0  0  0  0  0  0
    4.1557    1.4644   17.7918 C   0  0  0  0  0  0  0  0  0  0  0  0
    3.9380    1.7990   19.2378 C   0  0  0  0  0  0  0  0  0  0  0  0
    2.8684    2.7754   19.6289 C   0  0  0  0  0  0  0  0  0  0  0  0
    2.6508    3.1099   21.0748 C   0  0  0  0  0  0  0  0  0  0  0  0
    3.5027    2.4682   22.1295 C   0  0  0  0  0  0  0  0  0  0  0  0
    4.5721    1.4919   21.7384 C   0  0  0  0  0  0  0  0  0  0  0  0
    4.7898    1.1573   20.2926 C   0  0  0  0  0  0  0  0  0  0  0  0
   11.4194    1.7655   23.0704 C   0  0  0  0  0  0  0  0  0  0  0  0
   10.7733    3.1187   23.0355 C   0  0  0  0  0  0  0  0  0  0  0  0
    9.3677    3.4357   23.4526 N   0  0  0  0  0  0  0  0  0  0  0  0
    9.1450    4.9055   23.2523 N   0  0  0  0  0  0  0  0  0  0  0  0
   10.4130    5.4969   22.7114 C   0  0  0  0  0  0  0  0  0  0  0  0
   11.4193    4.3926   22.5774 N   0  0  0  0  0  0  0  0  0  0  0  0
   12.8248    4.5369   22.0738 C   0  0  0  0  0  0  0  0  0  0  0  0
  2  1  1  0  0  0
  2  3  1  0  0  0
  3  4  1  0  0  0
  4 19  1  0  0  0
 19 20  2  0  0  0
 20 21  1  0  0  0
 21 22  2  0  0  0
 22 23  1  0  0  0
 23 24  2  0  0  0
 24 25  1  0  0  0
 25 26  2  0  0  0
 26 27  1  0  0  0
 27 28  2  0  0  0
  4  5  1  0  0  0
  5  6  2  0  0  0
  5  7  1  0  0  0
  7  8  1  0  0  0
  8  9  1  0  0  0
  9 29  1  0  0  0
 29 30  1  0  0  0
 30 31  2  0  0  0
 31 32  1  0  0  0
 32 33  2  0  0  0
 33 34  1  0  0  0
 34 35  1  0  0  0
  9 10  1  0  0  0
 10 11  2  0  0  0
 10 12  1  0  0  0
 12 13  2  0  0  0
 13 14  1  0  0  0
 14 15  2  0  0  0
 15 16  1  0  0  0
 15 17  1  0  0  0
 17 18  2  0  0  0
  7  2  1  0  0  0
 34 30  1  0  0  0
 18 12  1  0  0  0
 28 19  1  0  0  0
 18  7  1  0  0  0
 28 23  1  0  0  0
M  END
> <minimizedAffinity>
-9.03444

> <CNNscore>
0.4920696318

> <CNNaffinity>
6.9213280678

> <CNN_VS>
3.4057753086

> <CNNaffinity_variance>
0.0972187072

$$$$



 35 40  0  0  0  0  0  0  0  0999 V2000
   11.0962   -2.6557   24.5551 C   0  0  0  0  0  0  0  0  0  0  0  0
    9.6169   -2.6598   24.3065 C   0  0  0  0  0  0  0  0  0  0  0  0
    8.9580   -3.8896   24.8574 C   0  0  0  0  0  0  0  0  0  0  0  0
    7.4902   -3.8013   24.5609 N   0  0  0  0  0  0  0  0  0  0  0  0
    7.2421   -2.5169   23.8268 C   0  0  0  0  0  0  0  0  0  0  0  0
    5.9129   -2.0245   23.3361 O   0  0  0  0  0  0  0  0  0  0  0  0
    8.5564   -1.8114   23.6695 C   0  0  0  0  0  0  0  0  0  0  0  0
    7.3934   -1.0741   23.0750 C   0  0  0  0  0  0  0  0  0  0  0  0
    7.6093    0.2477   22.3995 N   0  0  0  0  0  0  0  0  0  0  0  0
    8.9884    0.8321   22.3185 C   0  0  0  0  0  0  0  0  0  0  0  0
    9.2044    2.1538   21.6429 O   0  0  0  0  0  0  0  0  0  0  0  0
   10.1516    0.0947   22.9130 C   0  0  0  0  0  0  0  0  0  0  0  0
   11.5306    0.6791   22.8320 C   0  0  0  0  0  0  0  0  0  0  0  0
   12.6937   -0.0582   23.4265 C   0  0  0  0  0  0  0  0  0  0  0  0
   12.4778   -1.3800   24.1020 C   0  0  0  0  0  0  0  0  0  0  0  0
   13.6409   -2.1173   24.6966 F   0  0  0  0  0  0  0  0  0  0  0  0
   11.0987   -1.9644   24.1831 C   0  0  0  0  0  0  0  0  0  0  0  0
    9.9356   -1.2270   23.5885 C   0  0  0  0  0  0  0  0  0  0  0  0
    6.4527   -4.8186   24.9331 C   0  0  0  0  0  0  0  0  0  0  0  0
    6.3553   -6.1050   24.1679 C   0  0  0  0  0  0  0  0  0  0  0  0
    5.3178   -7.1223   24.5401 N   0  0  0  0  0  0  0  0  0  0  0  0
    4.3778   -6.8533   25.6777 C   0  0  0  0  0  0  0  0  0  0  0  0
    4.4753   -5.5669   26.4430 C   0  0  0  0  0  0  0  0  0  0  0  0
    3.5352   -5.2979   27.5805 C   0  0  0  0  0  0  0  0  0  0  0  0
    3.6328   -4.0114   28.3458 C   0  0  0  0  0  0  0  0  0  0  0  0
    4.6702   -2.9941   27.9735 C   0  0  0  0  0  0  0  0  0  0  0  0
    5.6102   -3.2632   26.8359 C   0  0  0  0  0  0  0  0  0  0  0  0
    5.5128   -4.5495   26.0707 C   0  0  0  0  0  0  0  0  0  0  0  0
    6.4462    0.9850   21.8050 C   0  0  0  0  0  0  0  0  0  0  0  0
    6.1119    0.8126   20.3529 C   0  0  0  0  0  0  0  0  0  0  0  0
    7.0586    0.3706   19.2766 N   0  0  0  0  0  0  0  0  0  0  0  0
    6.3040    0.3368   17.9807 N   0  0  0  0  0  0  0  0  0  0  0  0
    4.8909    0.7580   18.2561 C   0  0  0  0  0  0  0  0  0  0  0  0
    4.7722    1.0521   19.7221 N   0  0  0  0  0  0  0  0  0  0  0  0
    3.5316    1.5059   20.4327 C   0  0  0  0  0  0  0  0  0  0  0  0
  2  1  1  0  0  0
  2  3  1  0  0  0
  3  4  1  0  0  0
  4 19  1  0  0  0
 19 20  2  0  0  0
 20 21  1  0  0  0
 21 22  2  0  0  0
 22 23  1  0  0  0
 23 24  2  0  0  0
 24 25  1  0  0  0
 25 26  2  0  0  0
 26 27  1  0  0  0
 27 28  2  0  0  0
  4  5  1  0  0  0
  5  6  2  0  0  0
  5  7  1  0  0  0
  7  8  1  0  0  0
  8  9  1  0  0  0
  9 29  1  0  0  0
 29 30  1  0  0  0
 30 31  2  0  0  0
 31 32  1  0  0  0
 32 33  2  0  0  0
 33 34  1  0  0  0
 34 35  1  0  0  0
  9 10  1  0  0  0
 10 11  2  0  0  0
 10 12  1  0  0  0
 12 13  2  0  0  0
 13 14  1  0  0  0
 14 15  2  0  0  0
 15 16  1  0  0  0
 15 17  1  0  0  0
 17 18  2  0  0  0
  7  2  1  0  0  0
 34 30  1  0  0  0
 18 12  1  0  0  0
 28 19  1  0  0  0
 18  7  1  0  0  0
 28 23  1  0  0  0
M  END
> <minimizedAffinity>
-9.40807

> <CNNscore>
0.4780492187

> <CNNaffinity>
6.7810187340

> <CNN_VS>
3.2416605949

> <CNNaffinity_variance>
0.0668618008

$$$$



 35 40  0  0  0  0  0  0  0  0999 V2000
   10.2666   -1.6856   24.4206 C   0  0  0  0  0  0  0  0  0  0  0  0
    9.7072   -0.5329   23.6406 C   0  0  0  0  0  0  0  0  0  0  0  0
   10.6061    0.6670   23.6886 C   0  0  0  0  0  0  0  0  0  0  0  0
    9.9647    1.7591   22.8849 N   0  0  0  0  0  0  0  0  0  0  0  0
    8.6694    1.2342   22.3402 C   0  0  0  0  0  0  0  0  0  0  0  0
    7.7030    1.9927   21.4796 O   0  0  0  0  0  0  0  0  0  0  0  0
    8.5102   -0.1823   22.8073 C   0  0  0  0  0  0  0  0  0  0  0  0
    7.3780    0.3100   21.9555 C   0  0  0  0  0  0  0  0  0  0  0  0
    6.2245   -0.5967   21.6439 N   0  0  0  0  0  0  0  0  0  0  0  0
    6.2031   -1.9959   22.1841 C   0  0  0  0  0  0  0  0  0  0  0  0
    5.0496   -2.9026   21.8725 O   0  0  0  0  0  0  0  0  0  0  0  0
    7.3354   -2.4883   23.0359 C   0  0  0  0  0  0  0  0  0  0  0  0
    7.3141   -3.8875   23.5761 C   0  0  0  0  0  0  0  0  0  0  0  0
    8.4463   -4.3799   24.4279 C   0  0  0  0  0  0  0  0  0  0  0  0
    9.5998   -3.4731   24.7395 C   0  0  0  0  0  0  0  0  0  0  0  0
   10.7321   -3.9656   25.5913 F   0  0  0  0  0  0  0  0  0  0  0  0
    9.6212   -2.0740   24.1993 C   0  0  0  0  0  0  0  0  0  0  0  0
    8.4890   -1.5816   23.3475 C   0  0  0  0  0  0  0  0  0  0  0  0
   10.5209    3.1346   22.6646 C   0  0  0  0  0  0  0  0  0  0  0  0
   11.9068    3.3043   22.1165 C   0  0  0  0  0  0  0  0  0  0  0  0
   12.4630    4.6798   21.8961 N   0  0  0  0  0  0  0  0  0  0  0  0
   11.6333    5.8856   22.2240 C   0  0  0  0  0  0  0  0  0  0  0  0
   10.2474    5.7160   22.7721 C   0  0  0  0  0  0  0  0  0  0  0  0
    9.4177    6.9219   23.0999 C   0  0  0  0  0  0  0  0  0  0  0  0
    8.0317    6.7521   23.6481 C   0  0  0  0  0  0  0  0  0  0  0  0
    7.4756    5.3766   23.8684 C   0  0  0  0  0  0  0  0  0  0  0  0
    8.3053    4.1708   23.5406 C   0  0  0  0  0  0  0  0  0  0  0  0
    9.6912    4.3404   22.9924 C   0  0  0  0  0  0  0  0  0  0  0  0
    5.0922   -0.1042   20.7921 C   0  0  0  0  0  0  0  0  0  0  0  0
    5.3592    0.3859   19.3998 C   0  0  0  0  0  0  0  0  0  0  0  0
    6.5371    0.0188   18.5466 N   0  0  0  0  0  0  0  0  0  0  0  0
    6.4011    0.7352   17.2357 N   0  0  0  0  0  0  0  0  0  0  0  0
    5.1391    1.5449   17.2788 C   0  0  0  0  0  0  0  0  0  0  0  0
    4.4952    1.3290   18.6163 N   0  0  0  0  0  0  0  0  0  0  0  0
    3.2126    1.9477   19.0874 C   0  0  0  0  0  0  0  0  0  0  0  0
  2  1  1  0  0  0
  2  3  1  0  0  0
  3  4  1  0  0  0
  4 19  1  0  0  0
 19 20  2  0  0  0
 20 21  1  0  0  0
 21 22  2  0  0  0
 22 23  1  0  0  0
 23 24  2  0  0  0
 24 25  1  0  0  0
 25 26  2  0  0  0
 26 27  1  0  0  0
 27 28  2  0  0  0
  4  5  1  0  0  0
  5  6  2  0  0  0
  5  7  1  0  0  0
  7  8  1  0  0  0
  8  9  1  0  0  0
  9 29  1  0  0  0
 29 30  1  0  0  0
 30 31  2  0  0  0
 31 32  1  0  0  0
 32 33  2  0  0  0
 33 34  1  0  0  0
 34 35  1  0  0  0
  9 10  1  0  0  0
 10 11  2  0  0  0
 10 12  1  0  0  0
 12 13  2  0  0  0
 13 14  1  0  0  0
 14 15  2  0  0  0
 15 16  1  0  0  0
 15 17  1  0  0  0
 17 18  2  0  0  0
  7  2  1  0  0  0
 34 30  1  0  0  0
 18 12  1  0  0  0
 28 19  1  0  0  0
 18  7  1  0  0  0
 28 23  1  0  0  0
M  END
> <minimizedAffinity>
-8.69588

> <CNNscore>
0.4137808681

> <CNNaffinity>
6.6825232506

> <CNN_VS>
2.7651002407

> <CNNaffinity_variance>
0.2030191869

$$$$



 35 40  0  0  0  0  0  0  0  0999 V2000
   10.5281   -3.4934   25.2610 C   0  0  0  0  0  0  0  0  0  0  0  0
    9.2588   -3.2051   24.5154 C   0  0  0  0  0  0  0  0  0  0  0  0
    8.2663   -4.3226   24.6426 C   0  0  0  0  0  0  0  0  0  0  0  0
    7.0390   -3.9429   23.8683 N   0  0  0  0  0  0  0  0  0  0  0  0
    7.2730   -2.5908   23.2625 C   0  0  0  0  0  0  0  0  0  0  0  0
    6.3050   -1.8284   22.4070 O   0  0  0  0  0  0  0  0  0  0  0  0
    8.6449   -2.1348   23.6624 C   0  0  0  0  0  0  0  0  0  0  0  0
    7.9045   -1.1568   22.7992 C   0  0  0  0  0  0  0  0  0  0  0  0
    8.5493    0.1415   22.4138 N   0  0  0  0  0  0  0  0  0  0  0  0
    9.9346    0.4619   22.8917 C   0  0  0  0  0  0  0  0  0  0  0  0
   10.5794    1.7602   22.5063 O   0  0  0  0  0  0  0  0  0  0  0  0
   10.6751   -0.5161   23.7550 C   0  0  0  0  0  0  0  0  0  0  0  0
   12.0603   -0.1958   24.2329 C   0  0  0  0  0  0  0  0  0  0  0  0
   12.8008   -1.1738   25.0961 C   0  0  0  0  0  0  0  0  0  0  0  0
   12.1559   -2.4721   25.4815 C   0  0  0  0  0  0  0  0  0  0  0  0
   12.8964   -3.4502   26.3448 F   0  0  0  0  0  0  0  0  0  0  0  0
   10.7707   -2.7925   25.0036 C   0  0  0  0  0  0  0  0  0  0  0  0
   10.0303   -1.8145   24.1404 C   0  0  0  0  0  0  0  0  0  0  0  0
    5.7959   -4.7701   23.7249 C   0  0  0  0  0  0  0  0  0  0  0  0
    5.4478   -5.3770   22.3982 C   0  0  0  0  0  0  0  0  0  0  0  0
    4.2048   -6.2042   22.2548 N   0  0  0  0  0  0  0  0  0  0  0  0
    3.3098   -6.4243   23.4383 C   0  0  0  0  0  0  0  0  0  0  0  0
    3.6579   -5.8173   24.7651 C   0  0  0  0  0  0  0  0  0  0  0  0
    2.7628   -6.0375   25.9485 C   0  0  0  0  0  0  0  0  0  0  0  0
    3.1110   -5.4304   27.2753 C   0  0  0  0  0  0  0  0  0  0  0  0
    4.3540   -4.6033   27.4186 C   0  0  0  0  0  0  0  0  0  0  0  0
    5.2490   -4.3832   26.2352 C   0  0  0  0  0  0  0  0  0  0  0  0
    4.9009   -4.9902   24.9084 C   0  0  0  0  0  0  0  0  0  0  0  0
    7.8088    1.1196   21.5505 C   0  0  0  0  0  0  0  0  0  0  0  0
    7.0013    0.6298   20.3852 C   0  0  0  0  0  0  0  0  0  0  0  0
    7.4421   -0.3832   19.3705 N   0  0  0  0  0  0  0  0  0  0  0  0
    6.3244   -0.5720   18.3882 N   0  0  0  0  0  0  0  0  0  0  0  0
    5.1927    0.3244   18.7958 C   0  0  0  0  0  0  0  0  0  0  0  0
    5.6111    1.0671   20.0300 N   0  0  0  0  0  0  0  0  0  0  0  0
    4.7844    2.0708   20.7777 C   0  0  0  0  0  0  0  0  0  0  0  0
  2  1  1  0  0  0
  2  3  1  0  0  0
  3  4  1  0  0  0
  4 19  1  0  0  0
 19 20  2  0  0  0
 20 21  1  0  0  0
 21 22  2  0  0  0
 22 23  1  0  0  0
 23 24  2  0  0  0
 24 25  1  0  0  0
 25 26  2  0  0  0
 26 27  1  0  0  0
 27 28  2  0  0  0
  4  5  1  0  0  0
  5  6  2  0  0  0
  5  7  1  0  0  0
  7  8  1  0  0  0
  8  9  1  0  0  0
  9 29  1  0  0  0
 29 30  1  0  0  0
 30 31  2  0  0  0
 31 32  1  0  0  0
 32 33  2  0  0  0
 33 34  1  0  0  0
 34 35  1  0  0  0
  9 10  1  0  0  0
 10 11  2  0  0  0
 10 12  1  0  0  0
 12 13  2  0  0  0
 13 14  1  0  0  0
 14 15  2  0  0  0
 15 16  1  0  0  0
 15 17  1  0  0  0
 17 18  2  0  0  0
  7  2  1  0  0  0
 34 30  1  0  0  0
 18 12  1  0  0  0
 28 19  1  0  0  0
 18  7  1  0  0  0
 28 23  1  0  0  0
M  END
> <minimizedAffinity>
-9.47576

> <CNNscore>
0.3935092986

> <CNNaffinity>
6.6463270187

> <CNN_VS>
2.6153914928

> <CNNaffinity_variance>
0.1417920887

$$$$



 35 40  0  0  0  0  0  0  0  0999 V2000
   11.0260    0.0500   22.5377 C   0  0  0  0  0  0  0  0  0  0  0  0
    9.6339   -0.4634   22.3168 C   0  0  0  0  0  0  0  0  0  0  0  0
    8.9148    0.3049   21.2480 C   0  0  0  0  0  0  0  0  0  0  0  0
    7.5410   -0.2794   21.1018 N   0  0  0  0  0  0  0  0  0  0  0  0
    7.4112   -1.4088   22.0803 C   0  0  0  0  0  0  0  0  0  0  0  0
    6.2004   -2.2728   22.2739 O   0  0  0  0  0  0  0  0  0  0  0  0
    8.7047   -1.5225   22.8313 C   0  0  0  0  0  0  0  0  0  0  0  0
    7.6699   -2.5274   23.2429 C   0  0  0  0  0  0  0  0  0  0  0  0
    7.9798   -3.5251   24.3192 N   0  0  0  0  0  0  0  0  0  0  0  0
    9.3244   -3.5180   24.9840 C   0  0  0  0  0  0  0  0  0  0  0  0
    9.6342   -4.5157   26.0604 O   0  0  0  0  0  0  0  0  0  0  0  0
   10.3592   -2.5131   24.5724 C   0  0  0  0  0  0  0  0  0  0  0  0
   11.7038   -2.5059   25.2372 C   0  0  0  0  0  0  0  0  0  0  0  0
   12.7386   -1.5010   24.8256 C   0  0  0  0  0  0  0  0  0  0  0  0
   12.4287   -0.5033   23.7492 C   0  0  0  0  0  0  0  0  0  0  0  0
   13.4636    0.5016   23.3376 F   0  0  0  0  0  0  0  0  0  0  0  0
   11.0841   -0.5105   23.0844 C   0  0  0  0  0  0  0  0  0  0  0  0
   10.0494   -1.5153   23.4960 C   0  0  0  0  0  0  0  0  0  0  0  0
    6.4829    0.1843   20.1451 C   0  0  0  0  0  0  0  0  0  0  0  0
    6.3611   -0.4553   18.7939 C   0  0  0  0  0  0  0  0  0  0  0  0
    5.3029    0.0083   17.8372 N   0  0  0  0  0  0  0  0  0  0  0  0
    4.3666    1.1117   18.2317 C   0  0  0  0  0  0  0  0  0  0  0  0
    4.4883    1.7514   19.5830 C   0  0  0  0  0  0  0  0  0  0  0  0
    3.5519    2.8549   19.9776 C   0  0  0  0  0  0  0  0  0  0  0  0
    3.6738    3.4945   21.3289 C   0  0  0  0  0  0  0  0  0  0  0  0
    4.7319    3.0308   22.2856 C   0  0  0  0  0  0  0  0  0  0  0  0
    5.6683    1.9274   21.8910 C   0  0  0  0  0  0  0  0  0  0  0  0
    5.5465    1.2877   20.5398 C   0  0  0  0  0  0  0  0  0  0  0  0
    6.9449   -4.5300   24.7308 C   0  0  0  0  0  0  0  0  0  0  0  0
    6.1386   -5.2463   23.6883 C   0  0  0  0  0  0  0  0  0  0  0  0
    6.6252   -5.6691   22.3339 N   0  0  0  0  0  0  0  0  0  0  0  0
    5.4915   -6.3496   21.6256 N   0  0  0  0  0  0  0  0  0  0  0  0
    4.3042   -6.3473   22.5424 C   0  0  0  0  0  0  0  0  0  0  0  0
    4.7042   -5.6654   23.8172 N   0  0  0  0  0  0  0  0  0  0  0  0
    3.8242   -5.4419   25.0111 C   0  0  0  0  0  0  0  0  0  0  0  0
  2  1  1  0  0  0
  2  3  1  0  0  0
  3  4  1  0  0  0
  4 19  1  0  0  0
 19 20  2  0  0  0
 20 21  1  0  0  0
 21 22  2  0  0  0
 22 23  1  0  0  0
 23 24  2  0  0  0
 24 25  1  0  0  0
 25 26  2  0  0  0
 26 27  1  0  0  0
 27 28  2  0  0  0
  4  5  1  0  0  0
  5  6  2  0  0  0
  5  7  1  0  0  0
  7  8  1  0  0  0
  8  9  1  0  0  0
  9 29  1  0  0  0
 29 30  1  0  0  0
 30 31  2  0  0  0
 31 32  1  0  0  0
 32 33  2  0  0  0
 33 34  1  0  0  0
 34 35  1  0  0  0
  9 10  1  0  0  0
 10 11  2  0  0  0
 10 12  1  0  0  0
 12 13  2  0  0  0
 13 14  1  0  0  0
 14 15  2  0  0  0
 15 16  1  0  0  0
 15 17  1  0  0  0
 17 18  2  0  0  0
  7  2  1  0  0  0
 34 30  1  0  0  0
 18 12  1  0  0  0
 28 19  1  0  0  0
 18  7  1  0  0  0
 28 23  1  0  0  0
M  END
> <minimizedAffinity>
-9.33215

> <CNNscore>
0.3922799528

> <CNNaffinity>
6.7994832993

> <CNN_VS>
2.6673009396

> <CNNaffinity_variance>
0.0738160759

$$$$



 35 40  0  0  0  0  0  0  0  0999 V2000
   10.2527   -2.7849   26.1954 C   0  0  0  0  0  0  0  0  0  0  0  0
    9.1629   -1.8324   25.8013 C   0  0  0  0  0  0  0  0  0  0  0  0
    7.8385   -2.2195   26.3895 C   0  0  0  0  0  0  0  0  0  0  0  0
    6.8203   -1.2134   25.9411 N   0  0  0  0  0  0  0  0  0  0  0  0
    7.5155   -0.2045   25.0758 C   0  0  0  0  0  0  0  0  0  0  0  0
    6.8753    0.9792   24.4132 O   0  0  0  0  0  0  0  0  0  0  0  0
    8.9634   -0.5870   24.9894 C   0  0  0  0  0  0  0  0  0  0  0  0
    8.6125    0.6513   24.2191 C   0  0  0  0  0  0  0  0  0  0  0  0
    9.6743    1.3853   23.4550 N   0  0  0  0  0  0  0  0  0  0  0  0
   11.0870    0.8810   23.4612 C   0  0  0  0  0  0  0  0  0  0  0  0
   12.1488    1.6149   22.6971 O   0  0  0  0  0  0  0  0  0  0  0  0
   11.4379   -0.3574   24.2316 C   0  0  0  0  0  0  0  0  0  0  0  0
   12.8505   -0.8617   24.2379 C   0  0  0  0  0  0  0  0  0  0  0  0
   13.2013   -2.1000   25.0083 C   0  0  0  0  0  0  0  0  0  0  0  0
   12.1395   -2.8339   25.7724 C   0  0  0  0  0  0  0  0  0  0  0  0
   12.4904   -4.0723   26.5428 F   0  0  0  0  0  0  0  0  0  0  0  0
   10.7269   -2.3296   25.7661 C   0  0  0  0  0  0  0  0  0  0  0  0
   10.3761   -1.0914   24.9957 C   0  0  0  0  0  0  0  0  0  0  0  0
    5.3628   -1.2158   26.2956 C   0  0  0  0  0  0  0  0  0  0  0  0
    4.3614   -0.6123   25.3561 C   0  0  0  0  0  0  0  0  0  0  0  0
    2.9039   -0.6147   25.7107 N   0  0  0  0  0  0  0  0  0  0  0  0
    2.4479   -1.2206   27.0048 C   0  0  0  0  0  0  0  0  0  0  0  0
    3.4494   -1.8242   27.9444 C   0  0  0  0  0  0  0  0  0  0  0  0
    2.9934   -2.4301   29.2387 C   0  0  0  0  0  0  0  0  0  0  0  0
    3.9949   -3.0336   30.1782 C   0  0  0  0  0  0  0  0  0  0  0  0
    5.4523   -3.0312   29.8236 C   0  0  0  0  0  0  0  0  0  0  0  0
    5.9083   -2.4253   28.5294 C   0  0  0  0  0  0  0  0  0  0  0  0
    4.9069   -1.8218   27.5899 C   0  0  0  0  0  0  0  0  0  0  0  0
    9.3235    2.6236   22.6845 C   0  0  0  0  0  0  0  0  0  0  0  0
    7.9264    2.8190   22.1745 C   0  0  0  0  0  0  0  0  0  0  0  0
    7.2448    1.9863   21.1295 N   0  0  0  0  0  0  0  0  0  0  0  0
    5.8629    2.5340   20.9291 N   0  0  0  0  0  0  0  0  0  0  0  0
    5.6904    3.7052   21.8503 C   0  0  0  0  0  0  0  0  0  0  0  0
    6.9657    3.8813   22.6200 N   0  0  0  0  0  0  0  0  0  0  0  0
    7.2333    4.9348   23.6537 C   0  0  0  0  0  0  0  0  0  0  0  0
  2  1  1  0  0  0
  2  3  1  0  0  0
  3  4  1  0  0  0
  4 19  1  0  0  0
 19 20  2  0  0  0
 20 21  1  0  0  0
 21 22  2  0  0  0
 22 23  1  0  0  0
 23 24  2  0  0  0
 24 25  1  0  0  0
 25 26  2  0  0  0
 26 27  1  0  0  0
 27 28  2  0  0  0
  4  5  1  0  0  0
  5  6  2  0  0  0
  5  7  1  0  0  0
  7  8  1  0  0  0
  8  9  1  0  0  0
  9 29  1  0  0  0
 29 30  1  0  0  0
 30 31  2  0  0  0
 31 32  1  0  0  0
 32 33  2  0  0  0
 33 34  1  0  0  0
 34 35  1  0  0  0
  9 10  1  0  0  0
 10 11  2  0  0  0
 10 12  1  0  0  0
 12 13  2  0  0  0
 13 14  1  0  0  0
 14 15  2  0  0  0
 15 16  1  0  0  0
 15 17  1  0  0  0
 17 18  2  0  0  0
  7  2  1  0  0  0
 34 30  1  0  0  0
 18 12  1  0  0  0
 28 19  1  0  0  0
 18  7  1  0  0  0
 28 23  1  0  0  0
M  END
> <minimizedAffinity>
-7.94997

> <CNNscore>
0.3514367938

> <CNNaffinity>
6.5384988785

> <CNN_VS>
2.2978689671

> <CNNaffinity_variance>
0.1439555734

$$$$



 35 40  0  0  0  0  0  0  0  0999 V2000
    7.2985    0.2082   20.1193 C   0  0  0  0  0  0  0  0  0  0  0  0
    7.6067    0.0584   21.5797 C   0  0  0  0  0  0  0  0  0  0  0  0
    9.0333   -0.3414   21.8147 C   0  0  0  0  0  0  0  0  0  0  0  0
    9.2422   -0.4650   23.2949 N   0  0  0  0  0  0  0  0  0  0  0  0
    7.9447   -0.1416   23.9747 C   0  0  0  0  0  0  0  0  0  0  0  0
    7.7009   -0.1417   25.4548 O   0  0  0  0  0  0  0  0  0  0  0  0
    6.9340    0.1818   22.9146 C   0  0  0  0  0  0  0  0  0  0  0  0
    6.3988    0.2649   24.3134 C   0  0  0  0  0  0  0  0  0  0  0  0
    4.9668    0.6451   24.5473 N   0  0  0  0  0  0  0  0  0  0  0  0
    4.0698    0.9422   23.3823 C   0  0  0  0  0  0  0  0  0  0  0  0
    2.6378    1.3223   23.6161 O   0  0  0  0  0  0  0  0  0  0  0  0
    4.6049    0.8591   21.9834 C   0  0  0  0  0  0  0  0  0  0  0  0
    3.7080    1.1562   20.8184 C   0  0  0  0  0  0  0  0  0  0  0  0
    4.2431    1.0732   19.4196 C   0  0  0  0  0  0  0  0  0  0  0  0
    5.6752    0.6930   19.1858 C   0  0  0  0  0  0  0  0  0  0  0  0
    6.2103    0.6099   17.7869 F   0  0  0  0  0  0  0  0  0  0  0  0
    6.5721    0.3959   20.3508 C   0  0  0  0  0  0  0  0  0  0  0  0
    6.0370    0.4790   21.7496 C   0  0  0  0  0  0  0  0  0  0  0  0
   10.5235   -0.8452   23.9758 C   0  0  0  0  0  0  0  0  0  0  0  0
   11.7299    0.0372   23.8504 C   0  0  0  0  0  0  0  0  0  0  0  0
   13.0112   -0.3430   24.5314 N   0  0  0  0  0  0  0  0  0  0  0  0
   13.0860   -1.6056   25.3376 C   0  0  0  0  0  0  0  0  0  0  0  0
   11.8795   -2.4880   25.4630 C   0  0  0  0  0  0  0  0  0  0  0  0
   11.9544   -3.7507   26.2694 C   0  0  0  0  0  0  0  0  0  0  0  0
   10.7479   -4.6331   26.3947 C   0  0  0  0  0  0  0  0  0  0  0  0
    9.4666   -4.2529   25.7138 C   0  0  0  0  0  0  0  0  0  0  0  0
    9.3918   -2.9902   24.9075 C   0  0  0  0  0  0  0  0  0  0  0  0
   10.5982   -2.1078   24.7821 C   0  0  0  0  0  0  0  0  0  0  0  0
    4.4317    0.7281   25.9462 C   0  0  0  0  0  0  0  0  0  0  0  0
    5.2061    1.4579   27.0033 C   0  0  0  0  0  0  0  0  0  0  0  0
    5.6715    2.8820   26.9303 N   0  0  0  0  0  0  0  0  0  0  0  0
    6.4042    3.1960   28.2010 N   0  0  0  0  0  0  0  0  0  0  0  0
    6.3916    1.9658   29.0593 C   0  0  0  0  0  0  0  0  0  0  0  0
    5.6512    0.8916   28.3191 N   0  0  0  0  0  0  0  0  0  0  0  0
    5.4000   -0.5038   28.8087 C   0  0  0  0  0  0  0  0  0  0  0  0
  2  1  1  0  0  0
  2  3  1  0  0  0
  3  4  1  0  0  0
  4 19  1  0  0  0
 19 20  2  0  0  0
 20 21  1  0  0  0
 21 22  2  0  0  0
 22 23  1  0  0  0
 23 24  2  0  0  0
 24 25  1  0  0  0
 25 26  2  0  0  0
 26 27  1  0  0  0
 27 28  2  0  0  0
  4  5  1  0  0  0
  5  6  2  0  0  0
  5  7  1  0  0  0
  7  8  1  0  0  0
  8  9  1  0  0  0
  9 29  1  0  0  0
 29 30  1  0  0  0
 30 31  2  0  0  0
 31 32  1  0  0  0
 32 33  2  0  0  0
 33 34  1  0  0  0
 34 35  1  0  0  0
  9 10  1  0  0  0
 10 11  2  0  0  0
 10 12  1  0  0  0
 12 13  2  0  0  0
 13 14  1  0  0  0
 14 15  2  0  0  0
 15 16  1  0  0  0
 15 17  1  0  0  0
 17 18  2  0  0  0
  7  2  1  0  0  0
 34 30  1  0  0  0
 18 12  1  0  0  0
 28 19  1  0  0  0
 18  7  1  0  0  0
 28 23  1  0  0  0
M  END
> <minimizedAffinity>
-8.57615

> <CNNscore>
0.3312252462

> <CNNaffinity>
6.4253187180

> <CNN_VS>
2.1282277107

> <CNNaffinity_variance>
0.0852545649

$$$$



 35 40  0  0  0  0  0  0  0  0999 V2000
   10.7063   -2.1179   25.4988 C   0  0  0  0  0  0  0  0  0  0  0  0
    9.2311   -2.0807   25.2297 C   0  0  0  0  0  0  0  0  0  0  0  0
    8.4919   -3.1311   26.0045 C   0  0  0  0  0  0  0  0  0  0  0  0
    7.0344   -3.0139   25.6702 N   0  0  0  0  0  0  0  0  0  0  0  0
    6.8728   -1.8911   24.6887 C   0  0  0  0  0  0  0  0  0  0  0  0
    5.5804   -1.4267   24.0854 O   0  0  0  0  0  0  0  0  0  0  0  0
    8.2304   -1.3144   24.4164 C   0  0  0  0  0  0  0  0  0  0  0  0
    7.1200   -0.6417   23.6652 C   0  0  0  0  0  0  0  0  0  0  0  0
    7.4236    0.5008   22.7419 N   0  0  0  0  0  0  0  0  0  0  0  0
    8.8377    0.9706   22.5697 C   0  0  0  0  0  0  0  0  0  0  0  0
    9.1414    2.1130   21.6464 O   0  0  0  0  0  0  0  0  0  0  0  0
    9.9482    0.2978   23.3210 C   0  0  0  0  0  0  0  0  0  0  0  0
   11.3623    0.7676   23.1489 C   0  0  0  0  0  0  0  0  0  0  0  0
   12.4727    0.0949   23.9001 C   0  0  0  0  0  0  0  0  0  0  0  0
   12.1691   -1.0476   24.8234 C   0  0  0  0  0  0  0  0  0  0  0  0
   13.2796   -1.7203   25.5747 F   0  0  0  0  0  0  0  0  0  0  0  0
   10.7550   -1.5173   24.9955 C   0  0  0  0  0  0  0  0  0  0  0  0
    9.6446   -0.8446   24.2443 C   0  0  0  0  0  0  0  0  0  0  0  0
    5.9319   -3.8693   26.2206 C   0  0  0  0  0  0  0  0  0  0  0  0
    5.3265   -4.9491   25.3737 C   0  0  0  0  0  0  0  0  0  0  0  0
    4.2241   -5.8044   25.9242 N   0  0  0  0  0  0  0  0  0  0  0  0
    3.7272   -5.5800   27.3216 C   0  0  0  0  0  0  0  0  0  0  0  0
    4.3327   -4.5001   28.1685 C   0  0  0  0  0  0  0  0  0  0  0  0
    3.8358   -4.2756   29.5659 C   0  0  0  0  0  0  0  0  0  0  0  0
    4.4413   -3.1957   30.4128 C   0  0  0  0  0  0  0  0  0  0  0  0
    5.5437   -2.3404   29.8623 C   0  0  0  0  0  0  0  0  0  0  0  0
    6.0406   -2.5649   28.4649 C   0  0  0  0  0  0  0  0  0  0  0  0
    5.4351   -3.6447   27.6180 C   0  0  0  0  0  0  0  0  0  0  0  0
    6.3131    1.1735   21.9906 C   0  0  0  0  0  0  0  0  0  0  0  0
    6.1060    0.8781   20.5347 C   0  0  0  0  0  0  0  0  0  0  0  0
    7.1433    0.3573   19.5844 N   0  0  0  0  0  0  0  0  0  0  0  0
    6.5037    0.2090   18.2358 N   0  0  0  0  0  0  0  0  0  0  0  0
    5.0711    0.6381   18.3525 C   0  0  0  0  0  0  0  0  0  0  0  0
    4.8254    1.0517   19.7733 N   0  0  0  0  0  0  0  0  0  0  0  0
    3.5269    1.5511   20.3342 C   0  0  0  0  0  0  0  0  0  0  0  0
  2  1  1  0  0  0
  2  3  1  0  0  0
  3  4  1  0  0  0
  4 19  1  0  0  0
 19 20  2  0  0  0
 20 21  1  0  0  0
 21 22  2  0  0  0
 22 23  1  0  0  0
 23 24  2  0  0  0
 24 25  1  0  0  0
 25 26  2  0  0  0
 26 27  1  0  0  0
 27 28  2  0  0  0
  4  5  1  0  0  0
  5  6  2  0  0  0
  5  7  1  0  0  0
  7  8  1  0  0  0
  8  9  1  0  0  0
  9 29  1  0  0  0
 29 30  1  0  0  0
 30 31  2  0  0  0
 31 32  1  0  0  0
 32 33  2  0  0  0
 33 34  1  0  0  0
 34 35  1  0  0  0
  9 10  1  0  0  0
 10 11  2  0  0  0
 10 12  1  0  0  0
 12 13  2  0  0  0
 13 14  1  0  0  0
 14 15  2  0  0  0
 15 16  1  0  0  0
 15 17  1  0  0  0
 17 18  2  0  0  0
  7  2  1  0  0  0
 34 30  1  0  0  0
 18 12  1  0  0  0
 28 19  1  0  0  0
 18  7  1  0  0  0
 28 23  1  0  0  0
M  END
> <minimizedAffinity>
-9.24938

> <CNNscore>
0.2864380479

> <CNNaffinity>
6.4078130722

> <CNN_VS>
1.8354414701

> <CNNaffinity_variance>
0.0649986416

$$$$



 35 40  0  0  0  0  0  0  0  0999 V2000
   10.8217   -3.0741   26.1324 C   0  0  0  0  0  0  0  0  0  0  0  0
    9.4910   -2.4732   25.7882 C   0  0  0  0  0  0  0  0  0  0  0  0
    8.3545   -3.2352   26.4029 C   0  0  0  0  0  0  0  0  0  0  0  0
    7.0752   -2.5615   26.0037 N   0  0  0  0  0  0  0  0  0  0  0  0
    7.4210   -1.3833   25.1422 C   0  0  0  0  0  0  0  0  0  0  0  0
    6.4450   -0.4274   24.5227 O   0  0  0  0  0  0  0  0  0  0  0  0
    8.9141   -1.3287   25.0090 C   0  0  0  0  0  0  0  0  0  0  0  0
    8.1958   -0.2353   24.2752 C   0  0  0  0  0  0  0  0  0  0  0  0
    8.9751    0.7847   23.4991 N   0  0  0  0  0  0  0  0  0  0  0  0
   10.4726    0.7113   23.4568 C   0  0  0  0  0  0  0  0  0  0  0  0
   11.2519    1.7313   22.6808 O   0  0  0  0  0  0  0  0  0  0  0  0
   11.1910   -0.3821   24.1907 C   0  0  0  0  0  0  0  0  0  0  0  0
   12.6886   -0.4555   24.1484 C   0  0  0  0  0  0  0  0  0  0  0  0
   13.4069   -1.5489   24.8822 C   0  0  0  0  0  0  0  0  0  0  0  0
   12.6276   -2.5689   25.6583 C   0  0  0  0  0  0  0  0  0  0  0  0
   13.3460   -3.6623   26.3921 F   0  0  0  0  0  0  0  0  0  0  0  0
   11.1300   -2.4955   25.7006 C   0  0  0  0  0  0  0  0  0  0  0  0
   10.4117   -1.4021   24.9668 C   0  0  0  0  0  0  0  0  0  0  0  0
    5.6927   -2.9907   26.3968 C   0  0  0  0  0  0  0  0  0  0  0  0
    5.0263   -4.1251   25.6765 C   0  0  0  0  0  0  0  0  0  0  0  0
    3.6439   -4.5543   26.0697 N   0  0  0  0  0  0  0  0  0  0  0  0
    2.9279   -3.8491   27.1832 C   0  0  0  0  0  0  0  0  0  0  0  0
    3.5943   -2.7147   27.9036 C   0  0  0  0  0  0  0  0  0  0  0  0
    2.8783   -2.0094   29.0172 C   0  0  0  0  0  0  0  0  0  0  0  0
    3.5448   -0.8750   29.7375 C   0  0  0  0  0  0  0  0  0  0  0  0
    4.9272   -0.4459   29.3443 C   0  0  0  0  0  0  0  0  0  0  0  0
    5.6432   -1.1511   28.2307 C   0  0  0  0  0  0  0  0  0  0  0  0
    4.9768   -2.2854   27.5104 C   0  0  0  0  0  0  0  0  0  0  0  0
    8.2567    1.8781   22.7653 C   0  0  0  0  0  0  0  0  0  0  0  0
    7.3126    1.5385   21.6503 C   0  0  0  0  0  0  0  0  0  0  0  0
    7.6674    0.8189   20.3829 N   0  0  0  0  0  0  0  0  0  0  0  0
    6.4220    0.6945   19.5562 N   0  0  0  0  0  0  0  0  0  0  0  0
    5.2974    1.3371   20.3128 C   0  0  0  0  0  0  0  0  0  0  0  0
    5.8478    1.8587   21.6070 N   0  0  0  0  0  0  0  0  0  0  0  0
    5.0700    2.5748   22.6710 C   0  0  0  0  0  0  0  0  0  0  0  0
  2  1  1  0  0  0
  2  3  1  0  0  0
  3  4  1  0  0  0
  4 19  1  0  0  0
 19 20  2  0  0  0
 20 21  1  0  0  0
 21 22  2  0  0  0
 22 23  1  0  0  0
 23 24  2  0  0  0
 24 25  1  0  0  0
 25 26  2  0  0  0
 26 27  1  0  0  0
 27 28  2  0  0  0
  4  5  1  0  0  0
  5  6  2  0  0  0
  5  7  1  0  0  0
  7  8  1  0  0  0
  8  9  1  0  0  0
  9 29  1  0  0  0
 29 30  1  0  0  0
 30 31  2  0  0  0
 31 32  1  0  0  0
 32 33  2  0  0  0
 33 34  1  0  0  0
 34 35  1  0  0  0
  9 10  1  0  0  0
 10 11  2  0  0  0
 10 12  1  0  0  0
 12 13  2  0  0  0
 13 14  1  0  0  0
 14 15  2  0  0  0
 15 16  1  0  0  0
 15 17  1  0  0  0
 17 18  2  0  0  0
  7  2  1  0  0  0
 34 30  1  0  0  0
 18 12  1  0  0  0
 28 19  1  0  0  0
 18  7  1  0  0  0
 28 23  1  0  0  0
M  END
> <minimizedAffinity>
-8.31446

> <CNNscore>
0.2862402797

> <CNNaffinity>
6.6128897667

> <CNN_VS>
1.8928754330

> <CNNaffinity_variance>
0.1509061307

$$$$
