


 35 40  0  0  0  0  0  0  0  0999 V2000
   -9.6638   -2.6390  -23.6422 C   0  0  0  0  0  0  0  0  0  0  0  0
   -8.3655   -2.8323  -22.9160 C   0  0  0  0  0  0  0  0  0  0  0  0
   -8.1024   -1.7306  -21.9326 C   0  0  0  0  0  0  0  0  0  0  0  0
   -6.7906   -2.0117  -21.2617 N   0  0  0  0  0  0  0  0  0  0  0  0
   -6.2430   -3.2871  -21.8304 C   0  0  0  0  0  0  0  0  0  0  0  0
   -4.9492   -3.9407  -21.4445 O   0  0  0  0  0  0  0  0  0  0  0  0
   -7.2164   -3.7943  -22.8529 C   0  0  0  0  0  0  0  0  0  0  0  0
   -6.0056   -4.6626  -22.6798 C   0  0  0  0  0  0  0  0  0  0  0  0
   -5.8561   -5.9123  -23.4958 N   0  0  0  0  0  0  0  0  0  0  0  0
   -6.9173   -6.2937  -24.4849 C   0  0  0  0  0  0  0  0  0  0  0  0
   -6.7678   -7.5434  -25.3009 O   0  0  0  0  0  0  0  0  0  0  0  0
   -8.1282   -5.4254  -24.6579 C   0  0  0  0  0  0  0  0  0  0  0  0
   -9.1894   -5.8068  -25.6470 C   0  0  0  0  0  0  0  0  0  0  0  0
  -10.4002   -4.9385  -25.8200 C   0  0  0  0  0  0  0  0  0  0  0  0
  -10.5498   -3.6888  -25.0040 C   0  0  0  0  0  0  0  0  0  0  0  0
  -11.7606   -2.8205  -25.1771 F   0  0  0  0  0  0  0  0  0  0  0  0
   -9.4885   -3.3074  -24.0150 C   0  0  0  0  0  0  0  0  0  0  0  0
   -8.2777   -4.1757  -23.8419 C   0  0  0  0  0  0  0  0  0  0  0  0
   -6.1405   -1.1659  -20.2071 C   0  0  0  0  0  0  0  0  0  0  0  0
   -6.6501   -1.2024  -18.7969 C   0  0  0  0  0  0  0  0  0  0  0  0
   -6.0000   -0.3567  -17.7424 N   0  0  0  0  0  0  0  0  0  0  0  0
   -4.8403    0.5256  -18.0982 C   0  0  0  0  0  0  0  0  0  0  0  0
   -4.3307    0.5621  -19.5085 C   0  0  0  0  0  0  0  0  0  0  0  0
   -3.1709    1.4445  -19.8643 C   0  0  0  0  0  0  0  0  0  0  0  0
   -2.6613    1.4809  -21.2746 C   0  0  0  0  0  0  0  0  0  0  0  0
   -3.3115    0.6351  -22.3290 C   0  0  0  0  0  0  0  0  0  0  0  0
   -4.4712   -0.2472  -21.9733 C   0  0  0  0  0  0  0  0  0  0  0  0
   -4.9808   -0.2837  -20.5630 C   0  0  0  0  0  0  0  0  0  0  0  0
   -4.6452   -6.7806  -23.3228 C   0  0  0  0  0  0  0  0  0  0  0  0
   -3.5031   -6.6763  -24.2895 C   0  0  0  0  0  0  0  0  0  0  0  0
   -3.5440   -6.0129  -25.6342 N   0  0  0  0  0  0  0  0  0  0  0  0
   -2.1857   -6.1436  -26.2571 C   0  0  0  0  0  0  0  0  0  0  0  0
   -1.3053   -6.8878  -25.2973 C   0  0  0  0  0  0  0  0  0  0  0  0
   -2.1195   -7.2170  -24.0813 N   0  0  0  0  0  0  0  0  0  0  0  0
   -1.6351   -7.9570  -22.8698 C   0  0  0  0  0  0  0  0  0  0  0  0
  2  1  1  0  0  0
  2  3  1  0  0  0
  3  4  1  0  0  0
  4 19  1  0  0  0
 19 20  2  0  0  0
 20 21  1  0  0  0
 21 22  2  0  0  0
 22 23  1  0  0  0
 23 24  2  0  0  0
 24 25  1  0  0  0
 25 26  2  0  0  0
 26 27  1  0  0  0
 27 28  2  0  0  0
  4  5  1  0  0  0
  5  6  2  0  0  0
  5  7  1  0  0  0
  7  8  1  0  0  0
  8  9  1  0  0  0
  9 29  1  0  0  0
 29 30  1  0  0  0
 30 31  2  0  0  0
 31 32  1  0  0  0
 32 33  2  0  0  0
 33 34  1  0  0  0
 34 35  1  0  0  0
  9 10  1  0  0  0
 10 11  2  0  0  0
 10 12  1  0  0  0
 12 13  2  0  0  0
 13 14  1  0  0  0
 14 15  2  0  0  0
 15 16  1  0  0  0
 15 17  1  0  0  0
 17 18  2  0  0  0
  7  2  1  0  0  0
 34 30  1  0  0  0
 18 12  1  0  0  0
 28 19  1  0  0  0
 18  7  1  0  0  0
 28 23  1  0  0  0
M  END
> <minimizedAffinity>
-8.25658

> <CNNscore>
0.5096587539

> <CNNaffinity>
6.5951104164

> <CNN_VS>
3.3612556458

> <CNNaffinity_variance>
0.0856194794

$$$$



 35 40  0  0  0  0  0  0  0  0999 V2000
   -7.2595    0.2522  -21.3333 C   0  0  0  0  0  0  0  0  0  0  0  0
   -8.4857    0.1072  -22.1850 C   0  0  0  0  0  0  0  0  0  0  0  0
   -9.2467    1.3948  -22.2982 C   0  0  0  0  0  0  0  0  0  0  0  0
  -10.4473    1.1492  -23.1633 N   0  0  0  0  0  0  0  0  0  0  0  0
  -10.4282   -0.2903  -23.5847 C   0  0  0  0  0  0  0  0  0  0  0  0
  -11.4433   -0.9669  -24.4575 O   0  0  0  0  0  0  0  0  0  0  0  0
   -9.2159   -0.9343  -22.9801 C   0  0  0  0  0  0  0  0  0  0  0  0
  -10.0505   -1.8639  -23.8103 C   0  0  0  0  0  0  0  0  0  0  0  0
   -9.6404   -3.2976  -23.9724 N   0  0  0  0  0  0  0  0  0  0  0  0
   -8.3957   -3.8017  -23.3043 C   0  0  0  0  0  0  0  0  0  0  0  0
   -7.9856   -5.2354  -23.4664 O   0  0  0  0  0  0  0  0  0  0  0  0
   -7.5610   -2.8721  -22.4741 C   0  0  0  0  0  0  0  0  0  0  0  0
   -6.3162   -3.3763  -21.8059 C   0  0  0  0  0  0  0  0  0  0  0  0
   -5.4816   -2.4467  -20.9758 C   0  0  0  0  0  0  0  0  0  0  0  0
   -5.8917   -1.0130  -20.8137 C   0  0  0  0  0  0  0  0  0  0  0  0
   -5.0570   -0.0834  -19.9834 F   0  0  0  0  0  0  0  0  0  0  0  0
   -7.1365   -0.5089  -21.4818 C   0  0  0  0  0  0  0  0  0  0  0  0
   -7.9711   -1.4384  -22.3120 C   0  0  0  0  0  0  0  0  0  0  0  0
  -11.4848    2.1647  -23.5406 C   0  0  0  0  0  0  0  0  0  0  0  0
  -12.9163    1.9574  -23.1438 C   0  0  0  0  0  0  0  0  0  0  0  0
  -13.9538    2.9729  -23.5212 N   0  0  0  0  0  0  0  0  0  0  0  0
  -13.5596    4.1957  -24.2954 C   0  0  0  0  0  0  0  0  0  0  0  0
  -12.1280    4.4030  -24.6922 C   0  0  0  0  0  0  0  0  0  0  0  0
  -11.7338    5.6259  -25.4664 C   0  0  0  0  0  0  0  0  0  0  0  0
  -10.3021    5.8331  -25.8632 C   0  0  0  0  0  0  0  0  0  0  0  0
   -9.2647    4.8176  -25.4858 C   0  0  0  0  0  0  0  0  0  0  0  0
   -9.6589    3.5948  -24.7116 C   0  0  0  0  0  0  0  0  0  0  0  0
  -11.0905    3.3875  -24.3148 C   0  0  0  0  0  0  0  0  0  0  0  0
  -10.4751   -4.2272  -24.8027 C   0  0  0  0  0  0  0  0  0  0  0  0
   -9.8418   -5.0186  -25.9083 C   0  0  0  0  0  0  0  0  0  0  0  0
  -10.1012   -6.4629  -26.2191 N   0  0  0  0  0  0  0  0  0  0  0  0
   -9.2576   -6.8417  -27.4002 C   0  0  0  0  0  0  0  0  0  0  0  0
   -8.4768   -5.6314  -27.8193 C   0  0  0  0  0  0  0  0  0  0  0  0
   -8.8379   -4.5047  -26.8972 N   0  0  0  0  0  0  0  0  0  0  0  0
   -8.2910   -3.1091  -26.9541 C   0  0  0  0  0  0  0  0  0  0  0  0
  2  1  1  0  0  0
  2  3  1  0  0  0
  3  4  1  0  0  0
  4 19  1  0  0  0
 19 20  2  0  0  0
 20 21  1  0  0  0
 21 22  2  0  0  0
 22 23  1  0  0  0
 23 24  2  0  0  0
 24 25  1  0  0  0
 25 26  2  0  0  0
 26 27  1  0  0  0
 27 28  2  0  0  0
  4  5  1  0  0  0
  5  6  2  0  0  0
  5  7  1  0  0  0
  7  8  1  0  0  0
  8  9  1  0  0  0
  9 29  1  0  0  0
 29 30  1  0  0  0
 30 31  2  0  0  0
 31 32  1  0  0  0
 32 33  2  0  0  0
 33 34  1  0  0  0
 34 35  1  0  0  0
  9 10  1  0  0  0
 10 11  2  0  0  0
 10 12  1  0  0  0
 12 13  2  0  0  0
 13 14  1  0  0  0
 14 15  2  0  0  0
 15 16  1  0  0  0
 15 17  1  0  0  0
 17 18  2  0  0  0
  7  2  1  0  0  0
 34 30  1  0  0  0
 18 12  1  0  0  0
 28 19  1  0  0  0
 18  7  1  0  0  0
 28 23  1  0  0  0
M  END
> <minimizedAffinity>
-8.75297

> <CNNscore>
0.4994344115

> <CNNaffinity>
6.3559026718

> <CNN_VS>
3.1743564606

> <CNNaffinity_variance>
0.2096238583

$$$$



 35 40  0  0  0  0  0  0  0  0999 V2000
   -5.7920   -5.5128  -23.0827 C   0  0  0  0  0  0  0  0  0  0  0  0
   -6.3994   -4.2432  -22.5639 C   0  0  0  0  0  0  0  0  0  0  0  0
   -5.5358   -3.5907  -21.5253 C   0  0  0  0  0  0  0  0  0  0  0  0
   -6.2238   -2.3374  -21.0713 N   0  0  0  0  0  0  0  0  0  0  0  0
   -7.5125   -2.2155  -21.8292 C   0  0  0  0  0  0  0  0  0  0  0  0
   -8.5164   -1.1097  -21.6892 O   0  0  0  0  0  0  0  0  0  0  0  0
   -7.6210   -3.3933  -22.7517 C   0  0  0  0  0  0  0  0  0  0  0  0
   -8.7825   -2.4474  -22.8307 C   0  0  0  0  0  0  0  0  0  0  0  0
   -9.9139   -2.7264  -23.7752 N   0  0  0  0  0  0  0  0  0  0  0  0
   -9.8839   -3.9511  -24.6406 C   0  0  0  0  0  0  0  0  0  0  0  0
  -11.0153   -4.2301  -25.5851 O   0  0  0  0  0  0  0  0  0  0  0  0
   -8.7223   -4.8970  -24.5616 C   0  0  0  0  0  0  0  0  0  0  0  0
   -8.6923   -6.1218  -25.4270 C   0  0  0  0  0  0  0  0  0  0  0  0
   -7.5308   -7.0676  -25.3480 C   0  0  0  0  0  0  0  0  0  0  0  0
   -6.3994   -6.7887  -24.4036 C   0  0  0  0  0  0  0  0  0  0  0  0
   -5.2378   -7.7346  -24.3246 F   0  0  0  0  0  0  0  0  0  0  0  0
   -6.4294   -5.5639  -23.5381 C   0  0  0  0  0  0  0  0  0  0  0  0
   -7.5909   -4.6181  -23.6172 C   0  0  0  0  0  0  0  0  0  0  0  0
   -5.7128   -1.3751  -20.0403 C   0  0  0  0  0  0  0  0  0  0  0  0
   -6.1677   -1.4908  -18.6157 C   0  0  0  0  0  0  0  0  0  0  0  0
   -5.6567   -0.5285  -17.5848 N   0  0  0  0  0  0  0  0  0  0  0  0
   -4.6909    0.5495  -17.9785 C   0  0  0  0  0  0  0  0  0  0  0  0
   -4.2360    0.6651  -19.4032 C   0  0  0  0  0  0  0  0  0  0  0  0
   -3.2700    1.7432  -19.7969 C   0  0  0  0  0  0  0  0  0  0  0  0
   -2.8152    1.8588  -21.2216 C   0  0  0  0  0  0  0  0  0  0  0  0
   -3.3262    0.8965  -22.2525 C   0  0  0  0  0  0  0  0  0  0  0  0
   -4.2921   -0.1815  -21.8587 C   0  0  0  0  0  0  0  0  0  0  0  0
   -4.7469   -0.2972  -20.4341 C   0  0  0  0  0  0  0  0  0  0  0  0
  -11.0755   -1.7805  -23.8542 C   0  0  0  0  0  0  0  0  0  0  0  0
  -10.8351   -0.3111  -24.0360 C   0  0  0  0  0  0  0  0  0  0  0  0
   -9.5702    0.3199  -24.5381 N   0  0  0  0  0  0  0  0  0  0  0  0
   -9.7707    1.8063  -24.5600 C   0  0  0  0  0  0  0  0  0  0  0  0
  -11.1595    2.0939  -24.0714 C   0  0  0  0  0  0  0  0  0  0  0  0
  -11.8173    0.7853  -23.7476 N   0  0  0  0  0  0  0  0  0  0  0  0
  -13.2123    0.6048  -23.2268 C   0  0  0  0  0  0  0  0  0  0  0  0
  2  1  1  0  0  0
  2  3  1  0  0  0
  3  4  1  0  0  0
  4 19  1  0  0  0
 19 20  2  0  0  0
 20 21  1  0  0  0
 21 22  2  0  0  0
 22 23  1  0  0  0
 23 24  2  0  0  0
 24 25  1  0  0  0
 25 26  2  0  0  0
 26 27  1  0  0  0
 27 28  2  0  0  0
  4  5  1  0  0  0
  5  6  2  0  0  0
  5  7  1  0  0  0
  7  8  1  0  0  0
  8  9  1  0  0  0
  9 29  1  0  0  0
 29 30  1  0  0  0
 30 31  2  0  0  0
 31 32  1  0  0  0
 32 33  2  0  0  0
 33 34  1  0  0  0
 34 35  1  0  0  0
  9 10  1  0  0  0
 10 11  2  0  0  0
 10 12  1  0  0  0
 12 13  2  0  0  0
 13 14  1  0  0  0
 14 15  2  0  0  0
 15 16  1  0  0  0
 15 17  1  0  0  0
 17 18  2  0  0  0
  7  2  1  0  0  0
 34 30  1  0  0  0
 18 12  1  0  0  0
 28 19  1  0  0  0
 18  7  1  0  0  0
 28 23  1  0  0  0
M  END
> <minimizedAffinity>
-8.91152

> <CNNscore>
0.3315215707

> <CNNaffinity>
6.2349901199

> <CNN_VS>
2.0670337677

> <CNNaffinity_variance>
0.2894017994

$$$$



 35 40  0  0  0  0  0  0  0  0999 V2000
  -11.5626   -2.8223  -23.2994 C   0  0  0  0  0  0  0  0  0  0  0  0
  -10.2164   -2.3996  -23.8085 C   0  0  0  0  0  0  0  0  0  0  0  0
   -9.2999   -3.5696  -24.0116 C   0  0  0  0  0  0  0  0  0  0  0  0
   -7.9880   -3.0481  -24.5185 N   0  0  0  0  0  0  0  0  0  0  0  0
   -8.0937   -1.5559  -24.6286 C   0  0  0  0  0  0  0  0  0  0  0  0
   -7.0120   -0.6274  -25.0955 O   0  0  0  0  0  0  0  0  0  0  0  0
   -9.4709   -1.1551  -24.1898 C   0  0  0  0  0  0  0  0  0  0  0  0
   -8.6035   -0.0037  -24.6042 C   0  0  0  0  0  0  0  0  0  0  0  0
   -9.1409    1.3959  -24.5553 N   0  0  0  0  0  0  0  0  0  0  0  0
  -10.5458    1.6440  -24.0919 C   0  0  0  0  0  0  0  0  0  0  0  0
  -11.0832    3.0436  -24.0430 O   0  0  0  0  0  0  0  0  0  0  0  0
  -11.4133    0.4926  -23.6774 C   0  0  0  0  0  0  0  0  0  0  0  0
  -12.8181    0.7408  -23.2140 C   0  0  0  0  0  0  0  0  0  0  0  0
  -13.6856   -0.4106  -22.7995 C   0  0  0  0  0  0  0  0  0  0  0  0
  -13.1481   -1.8102  -22.8485 C   0  0  0  0  0  0  0  0  0  0  0  0
  -14.0156   -2.9616  -22.4340 F   0  0  0  0  0  0  0  0  0  0  0  0
  -11.7433   -2.0583  -23.3119 C   0  0  0  0  0  0  0  0  0  0  0  0
  -10.8759   -0.9070  -23.7263 C   0  0  0  0  0  0  0  0  0  0  0  0
   -6.7820   -3.8738  -24.8560 C   0  0  0  0  0  0  0  0  0  0  0  0
   -5.8680   -3.4475  -25.9662 C   0  0  0  0  0  0  0  0  0  0  0  0
   -4.6620   -4.2732  -26.3037 N   0  0  0  0  0  0  0  0  0  0  0  0
   -4.3702   -5.5253  -25.5309 C   0  0  0  0  0  0  0  0  0  0  0  0
   -5.2844   -5.9516  -24.4207 C   0  0  0  0  0  0  0  0  0  0  0  0
   -4.9925   -7.2037  -23.6479 C   0  0  0  0  0  0  0  0  0  0  0  0
   -5.9067   -7.6300  -22.5377 C   0  0  0  0  0  0  0  0  0  0  0  0
   -7.1125   -6.8043  -22.2002 C   0  0  0  0  0  0  0  0  0  0  0  0
   -7.4043   -5.5522  -22.9730 C   0  0  0  0  0  0  0  0  0  0  0  0
   -6.4903   -5.1259  -24.0832 C   0  0  0  0  0  0  0  0  0  0  0  0
   -8.2734    2.5473  -24.9698 C   0  0  0  0  0  0  0  0  0  0  0  0
   -7.8913    3.5968  -23.9686 C   0  0  0  0  0  0  0  0  0  0  0  0
   -8.3123    5.0363  -23.9959 N   0  0  0  0  0  0  0  0  0  0  0  0
   -7.7022    5.7203  -22.8086 C   0  0  0  0  0  0  0  0  0  0  0  0
   -6.9041    4.7036  -22.0474 C   0  0  0  0  0  0  0  0  0  0  0  0
   -7.0210    3.3912  -22.7644 N   0  0  0  0  0  0  0  0  0  0  0  0
   -6.3800    2.1000  -22.3499 C   0  0  0  0  0  0  0  0  0  0  0  0
  2  1  1  0  0  0
  2  3  1  0  0  0
  3  4  1  0  0  0
  4 19  1  0  0  0
 19 20  2  0  0  0
 20 21  1  0  0  0
 21 22  2  0  0  0
 22 23  1  0  0  0
 23 24  2  0  0  0
 24 25  1  0  0  0
 25 26  2  0  0  0
 26 27  1  0  0  0
 27 28  2  0  0  0
  4  5  1  0  0  0
  5  6  2  0  0  0
  5  7  1  0  0  0
  7  8  1  0  0  0
  8  9  1  0  0  0
  9 29  1  0  0  0
 29 30  1  0  0  0
 30 31  2  0  0  0
 31 32  1  0  0  0
 32 33  2  0  0  0
 33 34  1  0  0  0
 34 35  1  0  0  0
  9 10  1  0  0  0
 10 11  2  0  0  0
 10 12  1  0  0  0
 12 13  2  0  0  0
 13 14  1  0  0  0
 14 15  2  0  0  0
 15 16  1  0  0  0
 15 17  1  0  0  0
 17 18  2  0  0  0
  7  2  1  0  0  0
 34 30  1  0  0  0
 18 12  1  0  0  0
 28 19  1  0  0  0
 18  7  1  0  0  0
 28 23  1  0  0  0
M  END
> <minimizedAffinity>
-7.76721

> <CNNscore>
0.2923492193

> <CNNaffinity>
6.4582495689

> <CNN_VS>
1.8880642653

> <CNNaffinity_variance>
0.1033301204

$$$$



 35 40  0  0  0  0  0  0  0  0999 V2000
   -7.0751   -0.0282  -20.7337 C   0  0  0  0  0  0  0  0  0  0  0  0
   -8.1669   -0.2181  -21.7447 C   0  0  0  0  0  0  0  0  0  0  0  0
   -8.9998    1.0183  -21.9111 C   0  0  0  0  0  0  0  0  0  0  0  0
  -10.0570    0.7306  -22.9355 N   0  0  0  0  0  0  0  0  0  0  0  0
   -9.8775   -0.6836  -23.4023 C   0  0  0  0  0  0  0  0  0  0  0  0
  -10.7185   -1.3879  -24.4254 O   0  0  0  0  0  0  0  0  0  0  0  0
   -8.7093   -1.2699  -22.6663 C   0  0  0  0  0  0  0  0  0  0  0  0
   -9.3587   -2.2158  -23.6325 C   0  0  0  0  0  0  0  0  0  0  0  0
   -8.8264   -3.6093  -23.7904 N   0  0  0  0  0  0  0  0  0  0  0  0
   -7.6447   -4.0568  -22.9822 C   0  0  0  0  0  0  0  0  0  0  0  0
   -7.1124   -5.4503  -23.1401 O   0  0  0  0  0  0  0  0  0  0  0  0
   -6.9953   -3.1109  -22.0160 C   0  0  0  0  0  0  0  0  0  0  0  0
   -5.8136   -3.5584  -21.2077 C   0  0  0  0  0  0  0  0  0  0  0  0
   -5.1642   -2.6125  -20.2416 C   0  0  0  0  0  0  0  0  0  0  0  0
   -5.6965   -1.2191  -20.0837 C   0  0  0  0  0  0  0  0  0  0  0  0
   -5.0470   -0.2731  -19.1175 F   0  0  0  0  0  0  0  0  0  0  0  0
   -6.8781   -0.7715  -20.8919 C   0  0  0  0  0  0  0  0  0  0  0  0
   -7.5275   -1.7174  -21.8580 C   0  0  0  0  0  0  0  0  0  0  0  0
  -11.1091    1.6887  -23.4099 C   0  0  0  0  0  0  0  0  0  0  0  0
  -12.5291    1.5293  -22.9541 C   0  0  0  0  0  0  0  0  0  0  0  0
  -13.5812    2.4875  -23.4285 N   0  0  0  0  0  0  0  0  0  0  0  0
  -13.2131    3.6051  -24.3588 C   0  0  0  0  0  0  0  0  0  0  0  0
  -11.7930    3.7645  -24.8147 C   0  0  0  0  0  0  0  0  0  0  0  0
  -11.4249    4.8822  -25.7450 C   0  0  0  0  0  0  0  0  0  0  0  0
  -10.0047    5.0415  -26.2008 C   0  0  0  0  0  0  0  0  0  0  0  0
   -8.9528    4.0833  -25.7264 C   0  0  0  0  0  0  0  0  0  0  0  0
   -9.3209    2.9657  -24.7961 C   0  0  0  0  0  0  0  0  0  0  0  0
  -10.7409    2.8063  -24.3402 C   0  0  0  0  0  0  0  0  0  0  0  0
   -9.4759   -4.5552  -24.7566 C   0  0  0  0  0  0  0  0  0  0  0  0
   -8.7367   -4.9980  -25.9844 C   0  0  0  0  0  0  0  0  0  0  0  0
   -7.3312   -4.6230  -26.3506 N   0  0  0  0  0  0  0  0  0  0  0  0
   -6.9991   -5.2867  -27.6541 C   0  0  0  0  0  0  0  0  0  0  0  0
   -8.1993   -6.0719  -28.0935 C   0  0  0  0  0  0  0  0  0  0  0  0
   -9.2732   -5.8934  -27.0616 N   0  0  0  0  0  0  0  0  0  0  0  0
  -10.6430   -6.5034  -27.1001 C   0  0  0  0  0  0  0  0  0  0  0  0
  2  1  1  0  0  0
  2  3  1  0  0  0
  3  4  1  0  0  0
  4 19  1  0  0  0
 19 20  2  0  0  0
 20 21  1  0  0  0
 21 22  2  0  0  0
 22 23  1  0  0  0
 23 24  2  0  0  0
 24 25  1  0  0  0
 25 26  2  0  0  0
 26 27  1  0  0  0
 27 28  2  0  0  0
  4  5  1  0  0  0
  5  6  2  0  0  0
  5  7  1  0  0  0
  7  8  1  0  0  0
  8  9  1  0  0  0
  9 29  1  0  0  0
 29 30  1  0  0  0
 30 31  2  0  0  0
 31 32  1  0  0  0
 32 33  2  0  0  0
 33 34  1  0  0  0
 34 35  1  0  0  0
  9 10  1  0  0  0
 10 11  2  0  0  0
 10 12  1  0  0  0
 12 13  2  0  0  0
 13 14  1  0  0  0
 14 15  2  0  0  0
 15 16  1  0  0  0
 15 17  1  0  0  0
 17 18  2  0  0  0
  7  2  1  0  0  0
 34 30  1  0  0  0
 18 12  1  0  0  0
 28 19  1  0  0  0
 18  7  1  0  0  0
 28 23  1  0  0  0
M  END
> <minimizedAffinity>
-8.31572

> <CNNscore>
0.2743596435

> <CNNaffinity>
6.1986646652

> <CNN_VS>
1.7006634474

> <CNNaffinity_variance>
0.1628613025

$$$$



 35 40  0  0  0  0  0  0  0  0999 V2000
   -9.4407   -3.9862  -25.3531 C   0  0  0  0  0  0  0  0  0  0  0  0
   -8.8863   -2.8636  -24.5269 C   0  0  0  0  0  0  0  0  0  0  0  0
   -9.4955   -1.5427  -24.8929 C   0  0  0  0  0  0  0  0  0  0  0  0
   -8.8810   -0.4906  -24.0179 N   0  0  0  0  0  0  0  0  0  0  0  0
   -7.8920   -1.1613  -23.1113 C   0  0  0  0  0  0  0  0  0  0  0  0
   -7.0480   -0.4842  -22.0724 O   0  0  0  0  0  0  0  0  0  0  0  0
   -7.8953   -2.6279  -23.4258 C   0  0  0  0  0  0  0  0  0  0  0  0
   -6.9430   -2.2404  -22.3336 C   0  0  0  0  0  0  0  0  0  0  0  0
   -6.1028   -3.2875  -21.6646 N   0  0  0  0  0  0  0  0  0  0  0  0
   -6.2148   -4.7221  -22.0878 C   0  0  0  0  0  0  0  0  0  0  0  0
   -5.3746   -5.7692  -21.4187 O   0  0  0  0  0  0  0  0  0  0  0  0
   -7.1671   -5.1098  -23.1800 C   0  0  0  0  0  0  0  0  0  0  0  0
   -7.2791   -6.5445  -23.6032 C   0  0  0  0  0  0  0  0  0  0  0  0
   -8.2314   -6.9320  -24.6954 C   0  0  0  0  0  0  0  0  0  0  0  0
   -9.0716   -5.8849  -25.3644 C   0  0  0  0  0  0  0  0  0  0  0  0
  -10.0239   -6.2726  -26.4567 F   0  0  0  0  0  0  0  0  0  0  0  0
   -8.9596   -4.4503  -24.9413 C   0  0  0  0  0  0  0  0  0  0  0  0
   -8.0073   -4.0627  -23.8491 C   0  0  0  0  0  0  0  0  0  0  0  0
   -9.1996    0.9750  -24.0449 C   0  0  0  0  0  0  0  0  0  0  0  0
   -8.1038    1.9768  -24.2580 C   0  0  0  0  0  0  0  0  0  0  0  0
   -8.4224    3.4424  -24.2850 N   0  0  0  0  0  0  0  0  0  0  0  0
   -9.8367    3.9060  -24.0988 C   0  0  0  0  0  0  0  0  0  0  0  0
  -10.9325    2.9040  -23.8857 C   0  0  0  0  0  0  0  0  0  0  0  0
  -12.3470    3.3677  -23.6996 C   0  0  0  0  0  0  0  0  0  0  0  0
  -13.4427    2.3657  -23.4864 C   0  0  0  0  0  0  0  0  0  0  0  0
  -13.1241    0.9002  -23.4595 C   0  0  0  0  0  0  0  0  0  0  0  0
  -11.7097    0.4366  -23.6456 C   0  0  0  0  0  0  0  0  0  0  0  0
  -10.6140    1.4385  -23.8587 C   0  0  0  0  0  0  0  0  0  0  0  0
   -5.1505   -2.8998  -20.5723 C   0  0  0  0  0  0  0  0  0  0  0  0
   -5.3571   -1.6211  -19.8160 C   0  0  0  0  0  0  0  0  0  0  0  0
   -6.1735   -1.4566  -18.5684 N   0  0  0  0  0  0  0  0  0  0  0  0
   -6.1046   -0.0161  -18.1558 C   0  0  0  0  0  0  0  0  0  0  0  0
   -5.2456    0.7097  -19.1485 C   0  0  0  0  0  0  0  0  0  0  0  0
   -4.7837   -0.2822  -20.1745 N   0  0  0  0  0  0  0  0  0  0  0  0
   -3.9029    0.0130  -21.3523 C   0  0  0  0  0  0  0  0  0  0  0  0
  2  1  1  0  0  0
  2  3  1  0  0  0
  3  4  1  0  0  0
  4 19  1  0  0  0
 19 20  2  0  0  0
 20 21  1  0  0  0
 21 22  2  0  0  0
 22 23  1  0  0  0
 23 24  2  0  0  0
 24 25  1  0  0  0
 25 26  2  0  0  0
 26 27  1  0  0  0
 27 28  2  0  0  0
  4  5  1  0  0  0
  5  6  2  0  0  0
  5  7  1  0  0  0
  7  8  1  0  0  0
  8  9  1  0  0  0
  9 29  1  0  0  0
 29 30  1  0  0  0
 30 31  2  0  0  0
 31 32  1  0  0  0
 32 33  2  0  0  0
 33 34  1  0  0  0
 34 35  1  0  0  0
  9 10  1  0  0  0
 10 11  2  0  0  0
 10 12  1  0  0  0
 12 13  2  0  0  0
 13 14  1  0  0  0
 14 15  2  0  0  0
 15 16  1  0  0  0
 15 17  1  0  0  0
 17 18  2  0  0  0
  7  2  1  0  0  0
 34 30  1  0  0  0
 18 12  1  0  0  0
 28 19  1  0  0  0
 18  7  1  0  0  0
 28 23  1  0  0  0
M  END
> <minimizedAffinity>
-8.53429

> <CNNscore>
0.2265170366

> <CNNaffinity>
6.1484456062

> <CNN_VS>
1.3927277327

> <CNNaffinity_variance>
0.3076559305

$$$$



 35 40  0  0  0  0  0  0  0  0999 V2000
  -11.8457   -1.5510  -23.2999 C   0  0  0  0  0  0  0  0  0  0  0  0
  -10.3500   -1.5492  -23.4145 C   0  0  0  0  0  0  0  0  0  0  0  0
   -9.7752   -2.9289  -23.2876 C   0  0  0  0  0  0  0  0  0  0  0  0
   -8.2843   -2.8233  -23.4147 N   0  0  0  0  0  0  0  0  0  0  0  0
   -7.9378   -1.3784  -23.6201 C   0  0  0  0  0  0  0  0  0  0  0  0
   -6.5570   -0.8192  -23.7949 O   0  0  0  0  0  0  0  0  0  0  0  0
   -9.2145   -0.5910  -23.6200 C   0  0  0  0  0  0  0  0  0  0  0  0
   -7.9834    0.2429  -23.8174 C   0  0  0  0  0  0  0  0  0  0  0  0
   -8.1034    1.7279  -23.9921 N   0  0  0  0  0  0  0  0  0  0  0  0
   -9.4545    2.3789  -23.9695 C   0  0  0  0  0  0  0  0  0  0  0  0
   -9.5746    3.8639  -24.1442 O   0  0  0  0  0  0  0  0  0  0  0  0
  -10.6857    1.5450  -23.7720 C   0  0  0  0  0  0  0  0  0  0  0  0
  -12.0368    2.1961  -23.7494 C   0  0  0  0  0  0  0  0  0  0  0  0
  -13.2679    1.3622  -23.5520 C   0  0  0  0  0  0  0  0  0  0  0  0
  -13.1479   -0.1228  -23.3773 C   0  0  0  0  0  0  0  0  0  0  0  0
  -14.3791   -0.9567  -23.1799 F   0  0  0  0  0  0  0  0  0  0  0  0
  -11.7968   -0.7738  -23.3999 C   0  0  0  0  0  0  0  0  0  0  0  0
  -10.5657    0.0601  -23.5973 C   0  0  0  0  0  0  0  0  0  0  0  0
   -7.3109   -3.9626  -23.3480 C   0  0  0  0  0  0  0  0  0  0  0  0
   -6.4952   -4.1806  -22.1083 C   0  0  0  0  0  0  0  0  0  0  0  0
   -5.5218   -5.3198  -22.0416 N   0  0  0  0  0  0  0  0  0  0  0  0
   -5.3640   -6.2411  -23.2148 C   0  0  0  0  0  0  0  0  0  0  0  0
   -6.1798   -6.0231  -24.4546 C   0  0  0  0  0  0  0  0  0  0  0  0
   -6.0220   -6.9445  -25.6278 C   0  0  0  0  0  0  0  0  0  0  0  0
   -6.8377   -6.7264  -26.8676 C   0  0  0  0  0  0  0  0  0  0  0  0
   -7.8111   -5.5872  -26.9342 C   0  0  0  0  0  0  0  0  0  0  0  0
   -7.9689   -4.6659  -25.7610 C   0  0  0  0  0  0  0  0  0  0  0  0
   -7.1532   -4.8839  -24.5213 C   0  0  0  0  0  0  0  0  0  0  0  0
   -6.8722    2.5618  -24.1895 C   0  0  0  0  0  0  0  0  0  0  0  0
   -6.8023    3.9444  -23.6121 C   0  0  0  0  0  0  0  0  0  0  0  0
   -6.8745    4.2963  -22.1558 N   0  0  0  0  0  0  0  0  0  0  0  0
   -6.7647    5.7873  -22.0332 C   0  0  0  0  0  0  0  0  0  0  0  0
   -6.6248    6.3568  -23.4139 C   0  0  0  0  0  0  0  0  0  0  0  0
   -6.6480    5.2178  -24.3897 N   0  0  0  0  0  0  0  0  0  0  0  0
   -6.5365    5.3322  -25.8811 C   0  0  0  0  0  0  0  0  0  0  0  0
  2  1  1  0  0  0
  2  3  1  0  0  0
  3  4  1  0  0  0
  4 19  1  0  0  0
 19 20  2  0  0  0
 20 21  1  0  0  0
 21 22  2  0  0  0
 22 23  1  0  0  0
 23 24  2  0  0  0
 24 25  1  0  0  0
 25 26  2  0  0  0
 26 27  1  0  0  0
 27 28  2  0  0  0
  4  5  1  0  0  0
  5  6  2  0  0  0
  5  7  1  0  0  0
  7  8  1  0  0  0
  8  9  1  0  0  0
  9 29  1  0  0  0
 29 30  1  0  0  0
 30 31  2  0  0  0
 31 32  1  0  0  0
 32 33  2  0  0  0
 33 34  1  0  0  0
 34 35  1  0  0  0
  9 10  1  0  0  0
 10 11  2  0  0  0
 10 12  1  0  0  0
 12 13  2  0  0  0
 13 14  1  0  0  0
 14 15  2  0  0  0
 15 16  1  0  0  0
 15 17  1  0  0  0
 17 18  2  0  0  0
  7  2  1  0  0  0
 34 30  1  0  0  0
 18 12  1  0  0  0
 28 19  1  0  0  0
 18  7  1  0  0  0
 28 23  1  0  0  0
M  END
> <minimizedAffinity>
-7.98670

> <CNNscore>
0.2235665917

> <CNNaffinity>
6.1922941208

> <CNN_VS>
1.3843901157

> <CNNaffinity_variance>
0.2459831536

$$$$



 35 40  0  0  0  0  0  0  0  0999 V2000
   -9.8231   -1.1690  -23.1556 C   0  0  0  0  0  0  0  0  0  0  0  0
   -9.2286    0.1972  -23.3296 C   0  0  0  0  0  0  0  0  0  0  0  0
   -7.7291    0.1641  -23.3089 C   0  0  0  0  0  0  0  0  0  0  0  0
   -7.2320    1.5679  -23.4889 N   0  0  0  0  0  0  0  0  0  0  0  0
   -8.4243    2.4684  -23.6210 C   0  0  0  0  0  0  0  0  0  0  0  0
   -8.3889    3.9551  -23.8170 O   0  0  0  0  0  0  0  0  0  0  0  0
   -9.6583    1.6213  -23.5225 C   0  0  0  0  0  0  0  0  0  0  0  0
   -9.9354    3.0823  -23.7186 C   0  0  0  0  0  0  0  0  0  0  0  0
  -11.3506    3.5731  -23.7989 N   0  0  0  0  0  0  0  0  0  0  0  0
  -12.4886    2.6029  -23.6831 C   0  0  0  0  0  0  0  0  0  0  0  0
  -13.9038    3.0937  -23.7634 O   0  0  0  0  0  0  0  0  0  0  0  0
  -12.2115    1.1417  -23.4870 C   0  0  0  0  0  0  0  0  0  0  0  0
  -13.3495    0.1715  -23.3713 C   0  0  0  0  0  0  0  0  0  0  0  0
  -13.0724   -1.2896  -23.1752 C   0  0  0  0  0  0  0  0  0  0  0  0
  -11.6573   -1.7804  -23.0949 C   0  0  0  0  0  0  0  0  0  0  0  0
  -11.3802   -3.2415  -22.8988 F   0  0  0  0  0  0  0  0  0  0  0  0
  -10.5192   -0.8101  -23.2107 C   0  0  0  0  0  0  0  0  0  0  0  0
  -10.7964    0.6509  -23.4067 C   0  0  0  0  0  0  0  0  0  0  0  0
   -5.7950    1.9959  -23.5298 C   0  0  0  0  0  0  0  0  0  0  0  0
   -5.2303    2.6093  -24.7767 C   0  0  0  0  0  0  0  0  0  0  0  0
   -3.7933    3.0373  -24.8175 N   0  0  0  0  0  0  0  0  0  0  0  0
   -2.9210    2.8520  -23.6114 C   0  0  0  0  0  0  0  0  0  0  0  0
   -3.4857    2.2387  -22.3645 C   0  0  0  0  0  0  0  0  0  0  0  0
   -2.6133    2.0533  -21.1583 C   0  0  0  0  0  0  0  0  0  0  0  0
   -3.1781    1.4400  -19.9114 C   0  0  0  0  0  0  0  0  0  0  0  0
   -4.6151    1.0119  -19.8706 C   0  0  0  0  0  0  0  0  0  0  0  0
   -5.4874    1.1973  -21.0767 C   0  0  0  0  0  0  0  0  0  0  0  0
   -4.9227    1.8106  -22.3236 C   0  0  0  0  0  0  0  0  0  0  0  0
  -11.6277    5.0343  -23.9950 C   0  0  0  0  0  0  0  0  0  0  0  0
  -12.1159    5.5335  -25.3225 C   0  0  0  0  0  0  0  0  0  0  0  0
  -13.5272    5.9175  -25.6553 N   0  0  0  0  0  0  0  0  0  0  0  0
  -13.5621    6.3577  -27.0888 C   0  0  0  0  0  0  0  0  0  0  0  0
  -12.1722    6.2458  -27.6420 C   0  0  0  0  0  0  0  0  0  0  0  0
  -11.2785    5.7364  -26.5503 N   0  0  0  0  0  0  0  0  0  0  0  0
   -9.8059    5.4757  -26.6662 C   0  0  0  0  0  0  0  0  0  0  0  0
  2  1  1  0  0  0
  2  3  1  0  0  0
  3  4  1  0  0  0
  4 19  1  0  0  0
 19 20  2  0  0  0
 20 21  1  0  0  0
 21 22  2  0  0  0
 22 23  1  0  0  0
 23 24  2  0  0  0
 24 25  1  0  0  0
 25 26  2  0  0  0
 26 27  1  0  0  0
 27 28  2  0  0  0
  4  5  1  0  0  0
  5  6  2  0  0  0
  5  7  1  0  0  0
  7  8  1  0  0  0
  8  9  1  0  0  0
  9 29  1  0  0  0
 29 30  1  0  0  0
 30 31  2  0  0  0
 31 32  1  0  0  0
 32 33  2  0  0  0
 33 34  1  0  0  0
 34 35  1  0  0  0
  9 10  1  0  0  0
 10 11  2  0  0  0
 10 12  1  0  0  0
 12 13  2  0  0  0
 13 14  1  0  0  0
 14 15  2  0  0  0
 15 16  1  0  0  0
 15 17  1  0  0  0
 17 18  2  0  0  0
  7  2  1  0  0  0
 34 30  1  0  0  0
 18 12  1  0  0  0
 28 19  1  0  0  0
 18  7  1  0  0  0
 28 23  1  0  0  0
M  END
> <minimizedAffinity>
-7.85049

> <CNNscore>
0.2041324079

> <CNNaffinity>
6.0917654037

> <CNN_VS>
1.2435266972

> <CNNaffinity_variance>
0.0767808706

$$$$



 35 40  0  0  0  0  0  0  0  0999 V2000
  -11.8912   -1.5828  -23.4142 C   0  0  0  0  0  0  0  0  0  0  0  0
  -10.3981   -1.6603  -23.5355 C   0  0  0  0  0  0  0  0  0  0  0  0
   -9.9068   -3.0776  -23.5315 C   0  0  0  0  0  0  0  0  0  0  0  0
   -8.4123   -3.0505  -23.6562 N   0  0  0  0  0  0  0  0  0  0  0  0
   -7.9799   -1.6164  -23.7373 C   0  0  0  0  0  0  0  0  0  0  0  0
   -6.5680   -1.1275  -23.8697 O   0  0  0  0  0  0  0  0  0  0  0  0
   -9.2071   -0.7572  -23.6627 C   0  0  0  0  0  0  0  0  0  0  0  0
   -7.9283    0.0157  -23.7931 C   0  0  0  0  0  0  0  0  0  0  0  0
   -7.9592    1.5148  -23.8378 N   0  0  0  0  0  0  0  0  0  0  0  0
   -9.2690    2.2408  -23.7522 C   0  0  0  0  0  0  0  0  0  0  0  0
   -9.2999    3.7398  -23.7970 O   0  0  0  0  0  0  0  0  0  0  0  0
  -10.5479    1.4678  -23.6218 C   0  0  0  0  0  0  0  0  0  0  0  0
  -11.8576    2.1938  -23.5362 C   0  0  0  0  0  0  0  0  0  0  0  0
  -13.1365    1.4209  -23.4058 C   0  0  0  0  0  0  0  0  0  0  0  0
  -13.1056   -0.0781  -23.3611 C   0  0  0  0  0  0  0  0  0  0  0  0
  -14.3845   -0.8511  -23.2307 F   0  0  0  0  0  0  0  0  0  0  0  0
  -11.7958   -0.8042  -23.4467 C   0  0  0  0  0  0  0  0  0  0  0  0
  -10.5170   -0.0312  -23.5771 C   0  0  0  0  0  0  0  0  0  0  0  0
   -7.5087   -4.2472  -23.6933 C   0  0  0  0  0  0  0  0  0  0  0  0
   -6.7587   -4.6592  -22.4614 C   0  0  0  0  0  0  0  0  0  0  0  0
   -5.8552   -5.8560  -22.4985 N   0  0  0  0  0  0  0  0  0  0  0  0
   -5.7018   -6.6407  -23.7675 C   0  0  0  0  0  0  0  0  0  0  0  0
   -6.4518   -6.2287  -24.9995 C   0  0  0  0  0  0  0  0  0  0  0  0
   -6.2983   -7.0136  -26.2686 C   0  0  0  0  0  0  0  0  0  0  0  0
   -7.0484   -6.6015  -27.5005 C   0  0  0  0  0  0  0  0  0  0  0  0
   -7.9519   -5.4048  -27.4634 C   0  0  0  0  0  0  0  0  0  0  0  0
   -8.1053   -4.6200  -26.1943 C   0  0  0  0  0  0  0  0  0  0  0  0
   -7.3553   -5.0320  -24.9624 C   0  0  0  0  0  0  0  0  0  0  0  0
   -6.6803    2.2877  -23.9682 C   0  0  0  0  0  0  0  0  0  0  0  0
   -5.6841    2.2841  -22.8468 C   0  0  0  0  0  0  0  0  0  0  0  0
   -5.7491    1.4343  -21.6125 N   0  0  0  0  0  0  0  0  0  0  0  0
   -4.5532    1.7547  -20.7656 C   0  0  0  0  0  0  0  0  0  0  0  0
   -3.7491    2.8025  -21.4767 C   0  0  0  0  0  0  0  0  0  0  0  0
   -4.4480    3.1297  -22.7629 N   0  0  0  0  0  0  0  0  0  0  0  0
   -3.9911    4.1273  -23.7856 C   0  0  0  0  0  0  0  0  0  0  0  0
  2  1  1  0  0  0
  2  3  1  0  0  0
  3  4  1  0  0  0
  4 19  1  0  0  0
 19 20  2  0  0  0
 20 21  1  0  0  0
 21 22  2  0  0  0
 22 23  1  0  0  0
 23 24  2  0  0  0
 24 25  1  0  0  0
 25 26  2  0  0  0
 26 27  1  0  0  0
 27 28  2  0  0  0
  4  5  1  0  0  0
  5  6  2  0  0  0
  5  7  1  0  0  0
  7  8  1  0  0  0
  8  9  1  0  0  0
  9 29  1  0  0  0
 29 30  1  0  0  0
 30 31  2  0  0  0
 31 32  1  0  0  0
 32 33  2  0  0  0
 33 34  1  0  0  0
 34 35  1  0  0  0
  9 10  1  0  0  0
 10 11  2  0  0  0
 10 12  1  0  0  0
 12 13  2  0  0  0
 13 14  1  0  0  0
 14 15  2  0  0  0
 15 16  1  0  0  0
 15 17  1  0  0  0
 17 18  2  0  0  0
  7  2  1  0  0  0
 34 30  1  0  0  0
 18 12  1  0  0  0
 28 19  1  0  0  0
 18  7  1  0  0  0
 28 23  1  0  0  0
M  END
> <minimizedAffinity>
-8.16665

> <CNNscore>
0.2007144690

> <CNNaffinity>
6.2011513710

> <CNN_VS>
1.2446608543

> <CNNaffinity_variance>
0.2838621736

$$$$
