


 38 43  0  0  0  0  0  0  0  0999 V2000
   10.1304    0.7439   23.4030 N   0  0  0  0  0  0  0  0  0  0  0  0
    8.7470    0.2499   23.7067 C   0  0  0  0  0  0  0  0  0  0  0  0
    8.5546   -0.9401   24.5992 C   0  0  0  0  0  0  0  0  0  0  0  0
    8.2079   -2.1114   25.4697 C   0  0  0  0  0  0  0  0  0  0  0  0
    8.7520   -2.9635   26.1438 O   0  0  0  0  0  0  0  0  0  0  0  0
    6.7140   -2.2447   25.4943 N   0  0  0  0  0  0  0  0  0  0  0  0
    6.1375   -1.1557   24.6389 C   0  0  0  0  0  0  0  0  0  0  0  0
    7.2750   -0.3495   24.0858 C   0  0  0  0  0  0  0  0  0  0  0  0
    7.1541    0.8389   23.1784 C   0  0  0  0  0  0  0  0  0  0  0  0
    9.7457   -1.6363   25.1882 C   0  0  0  0  0  0  0  0  0  0  0  0
    9.5533   -2.8263   26.0808 C   0  0  0  0  0  0  0  0  0  0  0  0
   10.7443   -3.5224   26.6697 C   0  0  0  0  0  0  0  0  0  0  0  0
   10.5520   -4.7125   27.5623 Cl  0  0  0  0  0  0  0  0  0  0  0  0
   12.1277   -3.0285   26.3660 C   0  0  0  0  0  0  0  0  0  0  0  0
   12.3201   -1.8385   25.4734 C   0  0  0  0  0  0  0  0  0  0  0  0
   11.1291   -1.1424   24.8845 C   0  0  0  0  0  0  0  0  0  0  0  0
   11.3214    0.0478   23.9919 C   0  0  0  0  0  0  0  0  0  0  0  0
   12.7048    0.5417   23.6882 O   0  0  0  0  0  0  0  0  0  0  0  0
    5.9338   -3.2844   26.2427 C   0  0  0  0  0  0  0  0  0  0  0  0
    5.5433   -4.5631   25.5626 C   0  0  0  0  0  0  0  0  0  0  0  0
    4.7630   -5.6028   26.3110 N   0  0  0  0  0  0  0  0  0  0  0  0
    4.3733   -5.3638   27.7396 C   0  0  0  0  0  0  0  0  0  0  0  0
    4.7638   -4.0852   28.4198 C   0  0  0  0  0  0  0  0  0  0  0  0
    4.3739   -3.8462   29.8485 C   0  0  0  0  0  0  0  0  0  0  0  0
    4.7645   -2.5675   30.5285 C   0  0  0  0  0  0  0  0  0  0  0  0
    5.5447   -1.5278   29.7801 C   0  0  0  0  0  0  0  0  0  0  0  0
    5.9345   -1.7668   28.3515 C   0  0  0  0  0  0  0  0  0  0  0  0
    5.5440   -3.0455   27.6713 C   0  0  0  0  0  0  0  0  0  0  0  0
   10.3228    1.9340   22.5103 C   0  0  0  0  0  0  0  0  0  0  0  0
   11.1284    3.1062   22.9865 C   0  0  0  0  0  0  0  0  0  0  0  0
   11.7034    8.2130   22.2187 C   0  0  0  0  0  0  0  0  0  0  0  0
   10.8312    7.0401   22.5557 C   0  0  0  0  0  0  0  0  0  0  0  0
   11.4159    5.6596   22.6026 C   0  0  0  0  0  0  0  0  0  0  0  0
   10.5437    4.4868   22.9397 N   0  0  0  0  0  0  0  0  0  0  0  0
    9.0868    4.6944   23.2299 C   0  0  0  0  0  0  0  0  0  0  0  0
    8.5020    6.0750   23.1830 C   0  0  0  0  0  0  0  0  0  0  0  0
    9.3742    7.2479   22.8459 O   0  0  0  0  0  0  0  0  0  0  0  0
   11.5344    4.3455   22.7423 H   0  0  0  0  0  0  0  0  0  0  0  0
 32 31  1  0  0  0
 32 33  1  0  0  0
 33 34  1  0  0  0
 34 30  1  0  0  0
 30 29  1  0  0  0
 29  1  1  0  0  0
  1  2  1  0  0  0
  3  2  1  0  0  0
  3  4  1  0  0  0
  4  5  2  0  0  0
  4  6  1  0  0  0
  6 19  1  0  0  0
 19 20  2  0  0  0
 20 21  1  0  0  0
 21 22  2  0  0  0
 22 23  1  0  0  0
 23 24  2  0  0  0
 24 25  1  0  0  0
 25 26  2  0  0  0
 26 27  1  0  0  0
 27 28  2  0  0  0
  6  7  1  0  0  0
  7  8  1  0  0  0
  8  9  1  0  0  0
  3 10  1  0  0  0
 10 11  2  0  0  0
 11 12  1  0  0  0
 12 13  1  0  0  0
 12 14  2  0  0  0
 14 15  1  0  0  0
 15 16  2  0  0  0
 16 17  1  0  0  0
 17 18  2  0  0  0
 34 35  1  0  0  0
 35 36  1  0  0  0
 36 37  1  0  0  0
 37 32  1  0  0  0
 17  1  1  0  0  0
  8  3  1  0  0  0
 16 10  1  0  0  0
 28 19  1  0  0  0
 28 23  1  0  0  0
 34 38  1  0  0  0
M  CHG 1  34   1
M  END
> <minimizedAffinity>
-8.48858

> <CNNscore>
0.3454352319

> <CNNaffinity>
6.4799971581

> <CNN_VS>
2.2384192944

> <CNNaffinity_variance>
0.1728198677

$$$$



 38 43  0  0  0  0  0  0  0  0999 V2000
   10.6137    1.1017   23.1433 N   0  0  0  0  0  0  0  0  0  0  0  0
    9.2260    0.9075   23.6786 C   0  0  0  0  0  0  0  0  0  0  0  0
    8.9409   -0.2122   24.6351 C   0  0  0  0  0  0  0  0  0  0  0  0
    8.5071   -1.2816   25.5933 C   0  0  0  0  0  0  0  0  0  0  0  0
    8.9669   -2.2249   26.2059 O   0  0  0  0  0  0  0  0  0  0  0  0
    7.0414   -1.1014   25.8566 N   0  0  0  0  0  0  0  0  0  0  0  0
    6.5694    0.0795   25.0612 C   0  0  0  0  0  0  0  0  0  0  0  0
    7.7433    0.6290   24.3063 C   0  0  0  0  0  0  0  0  0  0  0  0
    7.7232    1.8121   23.3844 C   0  0  0  0  0  0  0  0  0  0  0  0
   10.0436   -1.1378   25.0564 C   0  0  0  0  0  0  0  0  0  0  0  0
    9.7585   -2.2575   26.0129 C   0  0  0  0  0  0  0  0  0  0  0  0
   10.8612   -3.1831   26.4341 C   0  0  0  0  0  0  0  0  0  0  0  0
   10.5761   -4.3029   27.3907 Cl  0  0  0  0  0  0  0  0  0  0  0  0
   12.2489   -2.9889   25.8988 C   0  0  0  0  0  0  0  0  0  0  0  0
   12.5339   -1.8692   24.9423 C   0  0  0  0  0  0  0  0  0  0  0  0
   11.4313   -0.9437   24.5211 C   0  0  0  0  0  0  0  0  0  0  0  0
   11.7163    0.1761   23.5645 C   0  0  0  0  0  0  0  0  0  0  0  0
   13.1040    0.3702   23.0292 O   0  0  0  0  0  0  0  0  0  0  0  0
    6.1962   -1.9526   26.7573 C   0  0  0  0  0  0  0  0  0  0  0  0
    6.8341   -3.0197   27.5965 C   0  0  0  0  0  0  0  0  0  0  0  0
    5.9889   -3.8709   28.4972 N   0  0  0  0  0  0  0  0  0  0  0  0
    4.5059   -3.6549   28.5585 C   0  0  0  0  0  0  0  0  0  0  0  0
    3.8680   -2.5878   27.7193 C   0  0  0  0  0  0  0  0  0  0  0  0
    2.3848   -2.3718   27.7807 C   0  0  0  0  0  0  0  0  0  0  0  0
    1.7470   -1.3046   26.9414 C   0  0  0  0  0  0  0  0  0  0  0  0
    2.5922   -0.4535   26.0408 C   0  0  0  0  0  0  0  0  0  0  0  0
    4.0753   -0.6694   25.9794 C   0  0  0  0  0  0  0  0  0  0  0  0
    4.7132   -1.7366   26.8187 C   0  0  0  0  0  0  0  0  0  0  0  0
   10.8987    2.2214   22.1868 C   0  0  0  0  0  0  0  0  0  0  0  0
   11.7191    3.3962   22.6304 C   0  0  0  0  0  0  0  0  0  0  0  0
   12.0803    8.5012   21.7316 C   0  0  0  0  0  0  0  0  0  0  0  0
   11.2914    7.3194   22.2121 C   0  0  0  0  0  0  0  0  0  0  0  0
   11.8997    5.9487   22.1810 C   0  0  0  0  0  0  0  0  0  0  0  0
   11.1108    4.7669   22.6615 N   0  0  0  0  0  0  0  0  0  0  0  0
    9.7135    4.9558   23.1731 C   0  0  0  0  0  0  0  0  0  0  0  0
    9.1051    6.3266   23.2042 C   0  0  0  0  0  0  0  0  0  0  0  0
    9.8940    7.5084   22.7237 O   0  0  0  0  0  0  0  0  0  0  0  0
   12.0610    4.6385   22.3136 H   0  0  0  0  0  0  0  0  0  0  0  0
 32 31  1  0  0  0
 32 33  1  0  0  0
 33 34  1  0  0  0
 34 30  1  0  0  0
 30 29  1  0  0  0
 29  1  1  0  0  0
  1  2  1  0  0  0
  3  2  1  0  0  0
  3  4  1  0  0  0
  4  5  2  0  0  0
  4  6  1  0  0  0
  6 19  1  0  0  0
 19 20  2  0  0  0
 20 21  1  0  0  0
 21 22  2  0  0  0
 22 23  1  0  0  0
 23 24  2  0  0  0
 24 25  1  0  0  0
 25 26  2  0  0  0
 26 27  1  0  0  0
 27 28  2  0  0  0
  6  7  1  0  0  0
  7  8  1  0  0  0
  8  9  1  0  0  0
  3 10  1  0  0  0
 10 11  2  0  0  0
 11 12  1  0  0  0
 12 13  1  0  0  0
 12 14  2  0  0  0
 14 15  1  0  0  0
 15 16  2  0  0  0
 16 17  1  0  0  0
 17 18  2  0  0  0
 34 35  1  0  0  0
 35 36  1  0  0  0
 36 37  1  0  0  0
 37 32  1  0  0  0
 17  1  1  0  0  0
  8  3  1  0  0  0
 16 10  1  0  0  0
 28 19  1  0  0  0
 28 23  1  0  0  0
 34 38  1  0  0  0
M  CHG 1  34   1
M  END
> <minimizedAffinity>
-7.87692

> <CNNscore>
0.3265737295

> <CNNaffinity>
6.5798463821

> <CNN_VS>
2.1488049030

> <CNNaffinity_variance>
0.1828384548

$$$$



 38 43  0  0  0  0  0  0  0  0999 V2000
   10.4935    0.6358   23.4148 N   0  0  0  0  0  0  0  0  0  0  0  0
    9.1093    0.3032   23.8874 C   0  0  0  0  0  0  0  0  0  0  0  0
    8.8938   -0.8443   24.8291 C   0  0  0  0  0  0  0  0  0  0  0  0
    8.5254   -1.9564   25.7658 C   0  0  0  0  0  0  0  0  0  0  0  0
    9.0483   -2.8532   26.3973 O   0  0  0  0  0  0  0  0  0  0  0  0
    7.0389   -1.9227   25.9636 N   0  0  0  0  0  0  0  0  0  0  0  0
    6.4885   -0.7897   25.1491 C   0  0  0  0  0  0  0  0  0  0  0  0
    7.6349   -0.1232   24.4480 C   0  0  0  0  0  0  0  0  0  0  0  0
    7.5392    1.0571   23.5273 C   0  0  0  0  0  0  0  0  0  0  0  0
   10.0626   -1.6592   25.2982 C   0  0  0  0  0  0  0  0  0  0  0  0
    9.8471   -2.8067   26.2399 C   0  0  0  0  0  0  0  0  0  0  0  0
   11.0158   -3.6216   26.7089 C   0  0  0  0  0  0  0  0  0  0  0  0
   10.8004   -4.7692   27.6506 Cl  0  0  0  0  0  0  0  0  0  0  0  0
   12.4000   -3.2889   26.2363 C   0  0  0  0  0  0  0  0  0  0  0  0
   12.6155   -2.1415   25.2946 C   0  0  0  0  0  0  0  0  0  0  0  0
   11.4468   -1.3266   24.8256 C   0  0  0  0  0  0  0  0  0  0  0  0
   11.6622   -0.1790   23.8839 C   0  0  0  0  0  0  0  0  0  0  0  0
   13.0464    0.1536   23.4112 O   0  0  0  0  0  0  0  0  0  0  0  0
    6.2426   -2.8578   26.8247 C   0  0  0  0  0  0  0  0  0  0  0  0
    6.1002   -2.5873   28.2933 C   0  0  0  0  0  0  0  0  0  0  0  0
    5.3039   -3.5223   29.1544 N   0  0  0  0  0  0  0  0  0  0  0  0
    4.6500   -4.7279   28.5470 C   0  0  0  0  0  0  0  0  0  0  0  0
    4.7924   -4.9984   27.0784 C   0  0  0  0  0  0  0  0  0  0  0  0
    4.1385   -6.2041   26.4710 C   0  0  0  0  0  0  0  0  0  0  0  0
    4.2810   -6.4745   25.0025 C   0  0  0  0  0  0  0  0  0  0  0  0
    5.0773   -5.5394   24.1413 C   0  0  0  0  0  0  0  0  0  0  0  0
    5.7312   -4.3339   24.7488 C   0  0  0  0  0  0  0  0  0  0  0  0
    5.5887   -4.0633   26.2173 C   0  0  0  0  0  0  0  0  0  0  0  0
   10.7089    1.7834   22.4731 C   0  0  0  0  0  0  0  0  0  0  0  0
   11.4858    2.9857   22.9213 C   0  0  0  0  0  0  0  0  0  0  0  0
   11.8631    8.0761   21.9493 C   0  0  0  0  0  0  0  0  0  0  0  0
   11.0478    6.8926   22.3788 C   0  0  0  0  0  0  0  0  0  0  0  0
   11.6744    5.5309   22.4353 C   0  0  0  0  0  0  0  0  0  0  0  0
   10.8592    4.3473   22.8648 N   0  0  0  0  0  0  0  0  0  0  0  0
    9.4173    4.5254   23.2378 C   0  0  0  0  0  0  0  0  0  0  0  0
    8.7906    5.8871   23.1813 C   0  0  0  0  0  0  0  0  0  0  0  0
    9.6059    7.0707   22.7518 O   0  0  0  0  0  0  0  0  0  0  0  0
   11.8397    4.2262   22.6112 H   0  0  0  0  0  0  0  0  0  0  0  0
 32 31  1  0  0  0
 32 33  1  0  0  0
 33 34  1  0  0  0
 34 30  1  0  0  0
 30 29  1  0  0  0
 29  1  1  0  0  0
  1  2  1  0  0  0
  3  2  1  0  0  0
  3  4  1  0  0  0
  4  5  2  0  0  0
  4  6  1  0  0  0
  6 19  1  0  0  0
 19 20  2  0  0  0
 20 21  1  0  0  0
 21 22  2  0  0  0
 22 23  1  0  0  0
 23 24  2  0  0  0
 24 25  1  0  0  0
 25 26  2  0  0  0
 26 27  1  0  0  0
 27 28  2  0  0  0
  6  7  1  0  0  0
  7  8  1  0  0  0
  8  9  1  0  0  0
  3 10  1  0  0  0
 10 11  2  0  0  0
 11 12  1  0  0  0
 12 13  1  0  0  0
 12 14  2  0  0  0
 14 15  1  0  0  0
 15 16  2  0  0  0
 16 17  1  0  0  0
 17 18  2  0  0  0
 34 35  1  0  0  0
 35 36  1  0  0  0
 36 37  1  0  0  0
 37 32  1  0  0  0
 17  1  1  0  0  0
  8  3  1  0  0  0
 16 10  1  0  0  0
 28 19  1  0  0  0
 28 23  1  0  0  0
 34 38  1  0  0  0
M  CHG 1  34   1
M  END
> <minimizedAffinity>
-8.87702

> <CNNscore>
0.3077426553

> <CNNaffinity>
6.5470862389

> <CNN_VS>
2.0148177147

> <CNNaffinity_variance>
0.1737841964

$$$$



 38 43  0  0  0  0  0  0  0  0999 V2000
   10.4390    0.8154   23.6764 N   0  0  0  0  0  0  0  0  0  0  0  0
    9.0567    0.4269   24.1102 C   0  0  0  0  0  0  0  0  0  0  0  0
    8.8531   -0.7870   24.9675 C   0  0  0  0  0  0  0  0  0  0  0  0
    8.4960   -1.9678   25.8208 C   0  0  0  0  0  0  0  0  0  0  0  0
    9.0290   -2.8972   26.3939 O   0  0  0  0  0  0  0  0  0  0  0  0
    7.0074   -1.9736   26.0047 N   0  0  0  0  0  0  0  0  0  0  0  0
    6.4443   -0.7963   25.2652 C   0  0  0  0  0  0  0  0  0  0  0  0
    7.5851   -0.0630   24.6241 C   0  0  0  0  0  0  0  0  0  0  0  0
    7.4768    1.1768   23.7867 C   0  0  0  0  0  0  0  0  0  0  0  0
   10.0319   -1.6123   25.3911 C   0  0  0  0  0  0  0  0  0  0  0  0
    9.8283   -2.8262   26.2485 C   0  0  0  0  0  0  0  0  0  0  0  0
   11.0070   -3.6514   26.6721 C   0  0  0  0  0  0  0  0  0  0  0  0
   10.8034   -4.8653   27.5295 Cl  0  0  0  0  0  0  0  0  0  0  0  0
   12.3893   -3.2628   26.2384 C   0  0  0  0  0  0  0  0  0  0  0  0
   12.5929   -2.0490   25.3810 C   0  0  0  0  0  0  0  0  0  0  0  0
   11.4142   -1.2237   24.9574 C   0  0  0  0  0  0  0  0  0  0  0  0
   11.6178   -0.0098   24.1000 C   0  0  0  0  0  0  0  0  0  0  0  0
   13.0001    0.3788   23.6663 O   0  0  0  0  0  0  0  0  0  0  0  0
    6.2200   -2.9800   26.7904 C   0  0  0  0  0  0  0  0  0  0  0  0
    6.1337   -2.8649   28.2835 C   0  0  0  0  0  0  0  0  0  0  0  0
    5.3464   -3.8713   29.0691 N   0  0  0  0  0  0  0  0  0  0  0  0
    4.6452   -4.9928   28.3616 C   0  0  0  0  0  0  0  0  0  0  0  0
    4.7315   -5.1079   26.8685 C   0  0  0  0  0  0  0  0  0  0  0  0
    4.0303   -6.2295   26.1610 C   0  0  0  0  0  0  0  0  0  0  0  0
    4.1165   -6.3446   24.6679 C   0  0  0  0  0  0  0  0  0  0  0  0
    4.9039   -5.3382   23.8823 C   0  0  0  0  0  0  0  0  0  0  0  0
    5.6051   -4.2167   24.5898 C   0  0  0  0  0  0  0  0  0  0  0  0
    5.5188   -4.1015   26.0829 C   0  0  0  0  0  0  0  0  0  0  0  0
   10.6426    2.0294   22.8190 C   0  0  0  0  0  0  0  0  0  0  0  0
    9.6512    3.1541   22.8640 C   0  0  0  0  0  0  0  0  0  0  0  0
    8.8249    8.2307   23.6027 C   0  0  0  0  0  0  0  0  0  0  0  0
    9.7105    7.1128   23.1378 C   0  0  0  0  0  0  0  0  0  0  0  0
    9.2381    5.6924   23.2334 C   0  0  0  0  0  0  0  0  0  0  0  0
   10.1236    4.5746   22.7684 N   0  0  0  0  0  0  0  0  0  0  0  0
   11.4816    4.8771   22.2078 C   0  0  0  0  0  0  0  0  0  0  0  0
   11.9541    6.2976   22.1122 C   0  0  0  0  0  0  0  0  0  0  0  0
   11.0685    7.4155   22.5772 O   0  0  0  0  0  0  0  0  0  0  0  0
    9.2002    4.3688   23.1496 H   0  0  0  0  0  0  0  0  0  0  0  0
 32 31  1  0  0  0
 32 33  1  0  0  0
 33 34  1  0  0  0
 34 30  1  0  0  0
 30 29  1  0  0  0
 29  1  1  0  0  0
  1  2  1  0  0  0
  3  2  1  0  0  0
  3  4  1  0  0  0
  4  5  2  0  0  0
  4  6  1  0  0  0
  6 19  1  0  0  0
 19 20  2  0  0  0
 20 21  1  0  0  0
 21 22  2  0  0  0
 22 23  1  0  0  0
 23 24  2  0  0  0
 24 25  1  0  0  0
 25 26  2  0  0  0
 26 27  1  0  0  0
 27 28  2  0  0  0
  6  7  1  0  0  0
  7  8  1  0  0  0
  8  9  1  0  0  0
  3 10  1  0  0  0
 10 11  2  0  0  0
 11 12  1  0  0  0
 12 13  1  0  0  0
 12 14  2  0  0  0
 14 15  1  0  0  0
 15 16  2  0  0  0
 16 17  1  0  0  0
 17 18  2  0  0  0
 34 35  1  0  0  0
 35 36  1  0  0  0
 36 37  1  0  0  0
 37 32  1  0  0  0
 17  1  1  0  0  0
  8  3  1  0  0  0
 16 10  1  0  0  0
 28 19  1  0  0  0
 28 23  1  0  0  0
 34 38  1  0  0  0
M  CHG 1  34   1
M  END
> <minimizedAffinity>
-8.88045

> <CNNscore>
0.2851403952

> <CNNaffinity>
6.4881591797

> <CNN_VS>
1.8500362635

> <CNNaffinity_variance>
0.2139228880

$$$$



 38 43  0  0  0  0  0  0  0  0999 V2000
    9.6869    0.5306   22.9075 N   0  0  0  0  0  0  0  0  0  0  0  0
    8.5526   -0.4401   22.7615 C   0  0  0  0  0  0  0  0  0  0  0  0
    8.5747   -1.7380   23.5131 C   0  0  0  0  0  0  0  0  0  0  0  0
    8.4584   -3.0676   24.1976 C   0  0  0  0  0  0  0  0  0  0  0  0
    9.0722   -3.7710   24.9753 O   0  0  0  0  0  0  0  0  0  0  0  0
    7.1694   -3.7008   23.7645 N   0  0  0  0  0  0  0  0  0  0  0  0
    6.4891   -2.7625   22.8123 C   0  0  0  0  0  0  0  0  0  0  0  0
    7.3576   -1.5494   22.6569 C   0  0  0  0  0  0  0  0  0  0  0  0
    7.0610   -0.3571   21.7964 C   0  0  0  0  0  0  0  0  0  0  0  0
    9.7310   -2.0652   24.4108 C   0  0  0  0  0  0  0  0  0  0  0  0
    9.7531   -3.3631   25.1624 C   0  0  0  0  0  0  0  0  0  0  0  0
   10.9094   -3.6903   26.0601 C   0  0  0  0  0  0  0  0  0  0  0  0
   10.9315   -4.9883   26.8118 Cl  0  0  0  0  0  0  0  0  0  0  0  0
   12.0437   -2.7197   26.2061 C   0  0  0  0  0  0  0  0  0  0  0  0
   12.0216   -1.4218   25.4545 C   0  0  0  0  0  0  0  0  0  0  0  0
   10.8653   -1.0946   24.5568 C   0  0  0  0  0  0  0  0  0  0  0  0
   10.8432    0.2034   23.8052 C   0  0  0  0  0  0  0  0  0  0  0  0
   11.9774    1.1740   23.9512 O   0  0  0  0  0  0  0  0  0  0  0  0
    6.6517   -5.0376   24.2061 C   0  0  0  0  0  0  0  0  0  0  0  0
    7.2705   -6.2953   23.6719 C   0  0  0  0  0  0  0  0  0  0  0  0
    6.7528   -7.6321   24.1135 N   0  0  0  0  0  0  0  0  0  0  0  0
    5.6163   -7.7111   25.0892 C   0  0  0  0  0  0  0  0  0  0  0  0
    4.9975   -6.4534   25.6234 C   0  0  0  0  0  0  0  0  0  0  0  0
    3.8610   -6.5326   26.5992 C   0  0  0  0  0  0  0  0  0  0  0  0
    3.2423   -5.2748   27.1333 C   0  0  0  0  0  0  0  0  0  0  0  0
    3.7599   -3.9380   26.6917 C   0  0  0  0  0  0  0  0  0  0  0  0
    4.8964   -3.8590   25.7160 C   0  0  0  0  0  0  0  0  0  0  0  0
    5.5152   -5.1167   25.1818 C   0  0  0  0  0  0  0  0  0  0  0  0
    9.6648    1.8285   22.1558 C   0  0  0  0  0  0  0  0  0  0  0  0
   10.7633    2.8300   22.3562 C   0  0  0  0  0  0  0  0  0  0  0  0
   12.0938    7.8391   21.9847 C   0  0  0  0  0  0  0  0  0  0  0  0
   11.0958    6.7846   22.3616 C   0  0  0  0  0  0  0  0  0  0  0  0
   11.4286    5.3346   22.1704 C   0  0  0  0  0  0  0  0  0  0  0  0
   10.4306    4.2801   22.5473 N   0  0  0  0  0  0  0  0  0  0  0  0
    9.0999    4.6756   23.1154 C   0  0  0  0  0  0  0  0  0  0  0  0
    8.7671    6.1257   23.3066 C   0  0  0  0  0  0  0  0  0  0  0  0
    9.7651    7.1802   22.9297 O   0  0  0  0  0  0  0  0  0  0  0  0
   11.3355    4.0111   22.1610 H   0  0  0  0  0  0  0  0  0  0  0  0
 32 31  1  0  0  0
 32 33  1  0  0  0
 33 34  1  0  0  0
 34 30  1  0  0  0
 30 29  1  0  0  0
 29  1  1  0  0  0
  1  2  1  0  0  0
  3  2  1  0  0  0
  3  4  1  0  0  0
  4  5  2  0  0  0
  4  6  1  0  0  0
  6 19  1  0  0  0
 19 20  2  0  0  0
 20 21  1  0  0  0
 21 22  2  0  0  0
 22 23  1  0  0  0
 23 24  2  0  0  0
 24 25  1  0  0  0
 25 26  2  0  0  0
 26 27  1  0  0  0
 27 28  2  0  0  0
  6  7  1  0  0  0
  7  8  1  0  0  0
  8  9  1  0  0  0
  3 10  1  0  0  0
 10 11  2  0  0  0
 11 12  1  0  0  0
 12 13  1  0  0  0
 12 14  2  0  0  0
 14 15  1  0  0  0
 15 16  2  0  0  0
 16 17  1  0  0  0
 17 18  2  0  0  0
 34 35  1  0  0  0
 35 36  1  0  0  0
 36 37  1  0  0  0
 37 32  1  0  0  0
 17  1  1  0  0  0
  8  3  1  0  0  0
 16 10  1  0  0  0
 28 19  1  0  0  0
 28 23  1  0  0  0
 34 38  1  0  0  0
M  CHG 1  34   1
M  END
> <minimizedAffinity>
-9.28350

> <CNNscore>
0.2637472451

> <CNNaffinity>
6.4564299583

> <CNN_VS>
1.7028656006

> <CNNaffinity_variance>
0.1681653708

$$$$



 38 43  0  0  0  0  0  0  0  0999 V2000
   10.4612    0.6954   23.4036 N   0  0  0  0  0  0  0  0  0  0  0  0
    9.0793    0.3431   23.8688 C   0  0  0  0  0  0  0  0  0  0  0  0
    8.8745   -0.8111   24.8047 C   0  0  0  0  0  0  0  0  0  0  0  0
    8.5164   -1.9318   25.7351 C   0  0  0  0  0  0  0  0  0  0  0  0
    9.0480   -2.8246   26.3650 O   0  0  0  0  0  0  0  0  0  0  0  0
    7.0287   -1.9179   25.9266 N   0  0  0  0  0  0  0  0  0  0  0  0
    6.4674   -0.7885   25.1146 C   0  0  0  0  0  0  0  0  0  0  0  0
    7.6082   -0.1045   24.4212 C   0  0  0  0  0  0  0  0  0  0  0  0
    7.5013    1.0785   23.5051 C   0  0  0  0  0  0  0  0  0  0  0  0
   10.0516   -1.6131   25.2753 C   0  0  0  0  0  0  0  0  0  0  0  0
    9.8467   -2.7673   26.2112 C   0  0  0  0  0  0  0  0  0  0  0  0
   11.0238   -3.5692   26.6818 C   0  0  0  0  0  0  0  0  0  0  0  0
   10.8190   -4.7235   27.6177 Cl  0  0  0  0  0  0  0  0  0  0  0  0
   12.4056   -3.2169   26.2165 C   0  0  0  0  0  0  0  0  0  0  0  0
   12.6104   -2.0627   25.2807 C   0  0  0  0  0  0  0  0  0  0  0  0
   11.4334   -1.2608   24.8101 C   0  0  0  0  0  0  0  0  0  0  0  0
   11.6382   -0.1065   23.8742 C   0  0  0  0  0  0  0  0  0  0  0  0
   13.0200    0.2457   23.4090 O   0  0  0  0  0  0  0  0  0  0  0  0
    6.2408   -2.8667   26.7803 C   0  0  0  0  0  0  0  0  0  0  0  0
    6.1362   -2.6354   28.2587 C   0  0  0  0  0  0  0  0  0  0  0  0
    5.3482   -3.5843   29.1124 N   0  0  0  0  0  0  0  0  0  0  0  0
    4.6648   -4.7644   28.4877 C   0  0  0  0  0  0  0  0  0  0  0  0
    4.7694   -4.9957   27.0093 C   0  0  0  0  0  0  0  0  0  0  0  0
    4.0859   -6.1758   26.3846 C   0  0  0  0  0  0  0  0  0  0  0  0
    4.1905   -6.4070   24.9062 C   0  0  0  0  0  0  0  0  0  0  0  0
    4.9785   -5.4582   24.0525 C   0  0  0  0  0  0  0  0  0  0  0  0
    5.6619   -4.2781   24.6772 C   0  0  0  0  0  0  0  0  0  0  0  0
    5.5573   -4.0468   26.1556 C   0  0  0  0  0  0  0  0  0  0  0  0
   10.6660    1.8496   22.4677 C   0  0  0  0  0  0  0  0  0  0  0  0
   11.2086    3.1484   22.9862 C   0  0  0  0  0  0  0  0  0  0  0  0
    6.4910    5.2919   23.3716 C   0  0  0  0  0  0  0  0  0  0  0  0
    7.9753    5.4383   23.2125 C   0  0  0  0  0  0  0  0  0  0  0  0
    8.8498    4.2201   23.1789 C   0  0  0  0  0  0  0  0  0  0  0  0
   10.3341    4.3666   23.0198 N   0  0  0  0  0  0  0  0  0  0  0  0
   10.9440    5.7312   22.8944 C   0  0  0  0  0  0  0  0  0  0  0  0
   10.0695    6.9495   22.9281 C   0  0  0  0  0  0  0  0  0  0  0  0
    8.5851    6.8031   23.0871 O   0  0  0  0  0  0  0  0  0  0  0  0
    9.9195    3.4386   23.1051 H   0  0  0  0  0  0  0  0  0  0  0  0
 32 31  1  0  0  0
 32 33  1  0  0  0
 33 34  1  0  0  0
 34 30  1  0  0  0
 30 29  1  0  0  0
 29  1  1  0  0  0
  1  2  1  0  0  0
  3  2  1  0  0  0
  3  4  1  0  0  0
  4  5  2  0  0  0
  4  6  1  0  0  0
  6 19  1  0  0  0
 19 20  2  0  0  0
 20 21  1  0  0  0
 21 22  2  0  0  0
 22 23  1  0  0  0
 23 24  2  0  0  0
 24 25  1  0  0  0
 25 26  2  0  0  0
 26 27  1  0  0  0
 27 28  2  0  0  0
  6  7  1  0  0  0
  7  8  1  0  0  0
  8  9  1  0  0  0
  3 10  1  0  0  0
 10 11  2  0  0  0
 11 12  1  0  0  0
 12 13  1  0  0  0
 12 14  2  0  0  0
 14 15  1  0  0  0
 15 16  2  0  0  0
 16 17  1  0  0  0
 17 18  2  0  0  0
 34 35  1  0  0  0
 35 36  1  0  0  0
 36 37  1  0  0  0
 37 32  1  0  0  0
 17  1  1  0  0  0
  8  3  1  0  0  0
 16 10  1  0  0  0
 28 19  1  0  0  0
 28 23  1  0  0  0
 34 38  1  0  0  0
M  CHG 1  34   1
M  END
> <minimizedAffinity>
-8.62068

> <CNNscore>
0.2484038323

> <CNNaffinity>
6.4056215286

> <CNN_VS>
1.5911809206

> <CNNaffinity_variance>
0.3135039806

$$$$



 38 43  0  0  0  0  0  0  0  0999 V2000
    9.6128    0.6013   22.9908 N   0  0  0  0  0  0  0  0  0  0  0  0
    8.4651   -0.3562   22.8641 C   0  0  0  0  0  0  0  0  0  0  0  0
    8.5046   -1.6733   23.5807 C   0  0  0  0  0  0  0  0  0  0  0  0
    8.4029   -3.0193   24.2349 C   0  0  0  0  0  0  0  0  0  0  0  0
    9.0400   -3.7475   24.9699 O   0  0  0  0  0  0  0  0  0  0  0  0
    7.0926   -3.6308   23.8361 N   0  0  0  0  0  0  0  0  0  0  0  0
    6.3843   -2.6627   22.9354 C   0  0  0  0  0  0  0  0  0  0  0  0
    7.2570   -1.4529   22.7776 C   0  0  0  0  0  0  0  0  0  0  0  0
    6.9381   -0.2364   21.9601 C   0  0  0  0  0  0  0  0  0  0  0  0
    9.6918   -2.0330   24.4241 C   0  0  0  0  0  0  0  0  0  0  0  0
    9.7313   -3.3501   25.1408 C   0  0  0  0  0  0  0  0  0  0  0  0
   10.9184   -3.7097   25.9841 C   0  0  0  0  0  0  0  0  0  0  0  0
   10.9579   -5.0269   26.7008 Cl  0  0  0  0  0  0  0  0  0  0  0  0
   12.0661   -2.7523   26.1108 C   0  0  0  0  0  0  0  0  0  0  0  0
   12.0266   -1.4352   25.3941 C   0  0  0  0  0  0  0  0  0  0  0  0
   10.8395   -1.0755   24.5508 C   0  0  0  0  0  0  0  0  0  0  0  0
   10.8000    0.2416   23.8341 C   0  0  0  0  0  0  0  0  0  0  0  0
   11.9477    1.1991   23.9608 O   0  0  0  0  0  0  0  0  0  0  0  0
    6.5804   -4.9744   24.2630 C   0  0  0  0  0  0  0  0  0  0  0  0
    7.1722   -6.2229   23.6791 C   0  0  0  0  0  0  0  0  0  0  0  0
    6.6600   -7.5666   24.1060 N   0  0  0  0  0  0  0  0  0  0  0  0
    5.5560   -7.6617   25.1169 C   0  0  0  0  0  0  0  0  0  0  0  0
    4.9641   -6.4132   25.7009 C   0  0  0  0  0  0  0  0  0  0  0  0
    3.8600   -6.5084   26.7118 C   0  0  0  0  0  0  0  0  0  0  0  0
    3.2682   -5.2599   27.2957 C   0  0  0  0  0  0  0  0  0  0  0  0
    3.7804   -3.9163   26.8688 C   0  0  0  0  0  0  0  0  0  0  0  0
    4.8844   -3.8211   25.8579 C   0  0  0  0  0  0  0  0  0  0  0  0
    5.4763   -5.0696   25.2739 C   0  0  0  0  0  0  0  0  0  0  0  0
    9.5733    1.9184   22.2740 C   0  0  0  0  0  0  0  0  0  0  0  0
    9.0249    3.1318   22.9646 C   0  0  0  0  0  0  0  0  0  0  0  0
    9.0593    8.2974   23.5258 C   0  0  0  0  0  0  0  0  0  0  0  0
    9.7563    7.0288   23.1323 C   0  0  0  0  0  0  0  0  0  0  0  0
    9.0421    5.7146   23.2452 C   0  0  0  0  0  0  0  0  0  0  0  0
    9.7391    4.4460   22.8518 N   0  0  0  0  0  0  0  0  0  0  0  0
   11.1503    4.4915   22.3455 C   0  0  0  0  0  0  0  0  0  0  0  0
   11.8646    5.8058   22.2326 C   0  0  0  0  0  0  0  0  0  0  0  0
   11.1676    7.0744   22.6261 O   0  0  0  0  0  0  0  0  0  0  0  0
    8.7794    4.4150   23.1960 H   0  0  0  0  0  0  0  0  0  0  0  0
 32 31  1  0  0  0
 32 33  1  0  0  0
 33 34  1  0  0  0
 34 30  1  0  0  0
 30 29  1  0  0  0
 29  1  1  0  0  0
  1  2  1  0  0  0
  3  2  1  0  0  0
  3  4  1  0  0  0
  4  5  2  0  0  0
  4  6  1  0  0  0
  6 19  1  0  0  0
 19 20  2  0  0  0
 20 21  1  0  0  0
 21 22  2  0  0  0
 22 23  1  0  0  0
 23 24  2  0  0  0
 24 25  1  0  0  0
 25 26  2  0  0  0
 26 27  1  0  0  0
 27 28  2  0  0  0
  6  7  1  0  0  0
  7  8  1  0  0  0
  8  9  1  0  0  0
  3 10  1  0  0  0
 10 11  2  0  0  0
 11 12  1  0  0  0
 12 13  1  0  0  0
 12 14  2  0  0  0
 14 15  1  0  0  0
 15 16  2  0  0  0
 16 17  1  0  0  0
 17 18  2  0  0  0
 34 35  1  0  0  0
 35 36  1  0  0  0
 36 37  1  0  0  0
 37 32  1  0  0  0
 17  1  1  0  0  0
  8  3  1  0  0  0
 16 10  1  0  0  0
 28 19  1  0  0  0
 28 23  1  0  0  0
 34 38  1  0  0  0
M  CHG 1  34   1
M  END
> <minimizedAffinity>
-9.05211

> <CNNscore>
0.2475479096

> <CNNaffinity>
6.4167647362

> <CNN_VS>
1.5884567499

> <CNNaffinity_variance>
0.2007760555

$$$$



 38 43  0  0  0  0  0  0  0  0999 V2000
    7.1563    0.2548   23.6374 N   0  0  0  0  0  0  0  0  0  0  0  0
    7.9199   -0.4219   24.7369 C   0  0  0  0  0  0  0  0  0  0  0  0
    9.3719   -0.7490   24.5504 C   0  0  0  0  0  0  0  0  0  0  0  0
   10.8205   -1.1362   24.5090 C   0  0  0  0  0  0  0  0  0  0  0  0
   11.7759   -1.0874   23.7599 O   0  0  0  0  0  0  0  0  0  0  0  0
   11.1648   -1.7838   25.8174 N   0  0  0  0  0  0  0  0  0  0  0  0
    9.9291   -1.7969   26.6675 C   0  0  0  0  0  0  0  0  0  0  0  0
    8.8210   -1.1573   25.8845 C   0  0  0  0  0  0  0  0  0  0  0  0
    7.4098   -0.9607   26.3533 C   0  0  0  0  0  0  0  0  0  0  0  0
   10.0603   -0.3992   23.2644 C   0  0  0  0  0  0  0  0  0  0  0  0
   11.5123   -0.7263   23.0779 C   0  0  0  0  0  0  0  0  0  0  0  0
   12.2007   -0.3766   21.7920 C   0  0  0  0  0  0  0  0  0  0  0  0
   13.6527   -0.7036   21.6054 Cl  0  0  0  0  0  0  0  0  0  0  0  0
   11.4371    0.3002   20.6924 C   0  0  0  0  0  0  0  0  0  0  0  0
    9.9851    0.6272   20.8789 C   0  0  0  0  0  0  0  0  0  0  0  0
    9.2968    0.2775   22.1649 C   0  0  0  0  0  0  0  0  0  0  0  0
    7.8447    0.6045   22.3514 C   0  0  0  0  0  0  0  0  0  0  0  0
    7.0811    1.2813   21.2519 O   0  0  0  0  0  0  0  0  0  0  0  0
   12.5089   -2.3236   26.2072 C   0  0  0  0  0  0  0  0  0  0  0  0
   13.6604   -1.3863   26.4208 C   0  0  0  0  0  0  0  0  0  0  0  0
   15.0045   -1.9261   26.8106 N   0  0  0  0  0  0  0  0  0  0  0  0
   15.1972   -3.4032   26.9868 C   0  0  0  0  0  0  0  0  0  0  0  0
   14.0457   -4.3405   26.7732 C   0  0  0  0  0  0  0  0  0  0  0  0
   14.2384   -5.8177   26.9494 C   0  0  0  0  0  0  0  0  0  0  0  0
   13.0869   -6.7549   26.7357 C   0  0  0  0  0  0  0  0  0  0  0  0
   11.7428   -6.2151   26.3459 C   0  0  0  0  0  0  0  0  0  0  0  0
   11.5501   -4.7380   26.1698 C   0  0  0  0  0  0  0  0  0  0  0  0
   12.7016   -3.8007   26.3834 C   0  0  0  0  0  0  0  0  0  0  0  0
    5.7043    0.5818   23.8239 C   0  0  0  0  0  0  0  0  0  0  0  0
    5.2579    2.0131   23.8710 C   0  0  0  0  0  0  0  0  0  0  0  0
    3.0335    1.7064   28.5568 C   0  0  0  0  0  0  0  0  0  0  0  0
    3.7902    2.4917   27.5270 C   0  0  0  0  0  0  0  0  0  0  0  0
    4.1457    1.8598   26.2139 C   0  0  0  0  0  0  0  0  0  0  0  0
    4.9025    2.6451   25.1840 N   0  0  0  0  0  0  0  0  0  0  0  0
    5.3037    4.0624   25.4673 C   0  0  0  0  0  0  0  0  0  0  0  0
    4.9482    4.6944   26.7804 C   0  0  0  0  0  0  0  0  0  0  0  0
    4.1915    3.9091   27.8102 O   0  0  0  0  0  0  0  0  0  0  0  0
    4.6296    1.6813   24.9914 H   0  0  0  0  0  0  0  0  0  0  0  0
 32 31  1  0  0  0
 32 33  1  0  0  0
 33 34  1  0  0  0
 34 30  1  0  0  0
 30 29  1  0  0  0
 29  1  1  0  0  0
  1  2  1  0  0  0
  3  2  1  0  0  0
  3  4  1  0  0  0
  4  5  2  0  0  0
  4  6  1  0  0  0
  6 19  1  0  0  0
 19 20  2  0  0  0
 20 21  1  0  0  0
 21 22  2  0  0  0
 22 23  1  0  0  0
 23 24  2  0  0  0
 24 25  1  0  0  0
 25 26  2  0  0  0
 26 27  1  0  0  0
 27 28  2  0  0  0
  6  7  1  0  0  0
  7  8  1  0  0  0
  8  9  1  0  0  0
  3 10  1  0  0  0
 10 11  2  0  0  0
 11 12  1  0  0  0
 12 13  1  0  0  0
 12 14  2  0  0  0
 14 15  1  0  0  0
 15 16  2  0  0  0
 16 17  1  0  0  0
 17 18  2  0  0  0
 34 35  1  0  0  0
 35 36  1  0  0  0
 36 37  1  0  0  0
 37 32  1  0  0  0
 17  1  1  0  0  0
  8  3  1  0  0  0
 16 10  1  0  0  0
 28 19  1  0  0  0
 28 23  1  0  0  0
 34 38  1  0  0  0
M  CHG 1  34   1
M  END
> <minimizedAffinity>
28.03474

> <CNNscore>
0.2253958881

> <CNNaffinity>
5.8742189407

> <CNN_VS>
1.3240247965

> <CNNaffinity_variance>
0.1189677715

$$$$



 38 43  0  0  0  0  0  0  0  0999 V2000
   10.9253    2.1653   22.8134 N   0  0  0  0  0  0  0  0  0  0  0  0
    9.5025    2.1180   23.2860 C   0  0  0  0  0  0  0  0  0  0  0  0
    9.0312    0.9733   24.1330 C   0  0  0  0  0  0  0  0  0  0  0  0
    8.4191   -0.1017   24.9813 C   0  0  0  0  0  0  0  0  0  0  0  0
    8.7235   -1.1451   25.5245 O   0  0  0  0  0  0  0  0  0  0  0  0
    6.9803    0.2533   25.2129 N   0  0  0  0  0  0  0  0  0  0  0  0
    6.7030    1.5479   24.5076 C   0  0  0  0  0  0  0  0  0  0  0  0
    7.9706    1.9928   23.8403 C   0  0  0  0  0  0  0  0  0  0  0  0
    8.1466    3.2386   23.0235 C   0  0  0  0  0  0  0  0  0  0  0  0
    9.9827   -0.1242   24.5074 C   0  0  0  0  0  0  0  0  0  0  0  0
    9.5114   -1.2689   25.3545 C   0  0  0  0  0  0  0  0  0  0  0  0
   10.4629   -2.3663   25.7289 C   0  0  0  0  0  0  0  0  0  0  0  0
    9.9916   -3.5111   26.5759 Cl  0  0  0  0  0  0  0  0  0  0  0  0
   11.8857   -2.3191   25.2563 C   0  0  0  0  0  0  0  0  0  0  0  0
   12.3570   -1.1744   24.4093 C   0  0  0  0  0  0  0  0  0  0  0  0
   11.4055   -0.0769   24.0348 C   0  0  0  0  0  0  0  0  0  0  0  0
   11.8768    1.0679   23.1878 C   0  0  0  0  0  0  0  0  0  0  0  0
   13.2997    1.1151   22.7152 O   0  0  0  0  0  0  0  0  0  0  0  0
    5.9922   -0.5458   26.0097 C   0  0  0  0  0  0  0  0  0  0  0  0
    5.3370   -1.7502   25.4013 C   0  0  0  0  0  0  0  0  0  0  0  0
    4.3489   -2.5494   26.1981 N   0  0  0  0  0  0  0  0  0  0  0  0
    4.0160   -2.1441   27.6034 C   0  0  0  0  0  0  0  0  0  0  0  0
    4.6712   -0.9397   28.2119 C   0  0  0  0  0  0  0  0  0  0  0  0
    4.3382   -0.5345   29.6173 C   0  0  0  0  0  0  0  0  0  0  0  0
    4.9934    0.6699   30.2256 C   0  0  0  0  0  0  0  0  0  0  0  0
    5.9815    1.4691   29.4288 C   0  0  0  0  0  0  0  0  0  0  0  0
    6.3144    1.0638   28.0235 C   0  0  0  0  0  0  0  0  0  0  0  0
    5.6593   -0.1406   27.4150 C   0  0  0  0  0  0  0  0  0  0  0  0
   11.3966    3.3101   21.9663 C   0  0  0  0  0  0  0  0  0  0  0  0
   12.2077    4.4128   22.5797 C   0  0  0  0  0  0  0  0  0  0  0  0
    8.4567    7.7021   24.0322 C   0  0  0  0  0  0  0  0  0  0  0  0
    9.7783    7.4499   23.3691 C   0  0  0  0  0  0  0  0  0  0  0  0
   10.3322    6.0574   23.3059 C   0  0  0  0  0  0  0  0  0  0  0  0
   11.6538    5.8053   22.6428 N   0  0  0  0  0  0  0  0  0  0  0  0
   12.4216    6.9457   22.0429 C   0  0  0  0  0  0  0  0  0  0  0  0
   11.8677    8.3383   22.1060 C   0  0  0  0  0  0  0  0  0  0  0  0
   10.5461    8.5904   22.7691 O   0  0  0  0  0  0  0  0  0  0  0  0
   11.1317    5.0298   23.0508 H   0  0  0  0  0  0  0  0  0  0  0  0
 32 31  1  0  0  0
 32 33  1  0  0  0
 33 34  1  0  0  0
 34 30  1  0  0  0
 30 29  1  0  0  0
 29  1  1  0  0  0
  1  2  1  0  0  0
  3  2  1  0  0  0
  3  4  1  0  0  0
  4  5  2  0  0  0
  4  6  1  0  0  0
  6 19  1  0  0  0
 19 20  2  0  0  0
 20 21  1  0  0  0
 21 22  2  0  0  0
 22 23  1  0  0  0
 23 24  2  0  0  0
 24 25  1  0  0  0
 25 26  2  0  0  0
 26 27  1  0  0  0
 27 28  2  0  0  0
  6  7  1  0  0  0
  7  8  1  0  0  0
  8  9  1  0  0  0
  3 10  1  0  0  0
 10 11  2  0  0  0
 11 12  1  0  0  0
 12 13  1  0  0  0
 12 14  2  0  0  0
 14 15  1  0  0  0
 15 16  2  0  0  0
 16 17  1  0  0  0
 17 18  2  0  0  0
 34 35  1  0  0  0
 35 36  1  0  0  0
 36 37  1  0  0  0
 37 32  1  0  0  0
 17  1  1  0  0  0
  8  3  1  0  0  0
 16 10  1  0  0  0
 28 19  1  0  0  0
 28 23  1  0  0  0
 34 38  1  0  0  0
M  CHG 1  34   1
M  END
> <minimizedAffinity>
-7.73731

> <CNNscore>
0.1691744924

> <CNNaffinity>
6.3845319748

> <CNN_VS>
1.0800999403

> <CNNaffinity_variance>
0.1907282621

$$$$
