


 27 31  0  0  0  0  0  0  0  0999 V2000
   -5.4120   -4.1071  -21.3375 O   0  0  0  0  0  0  0  0  0  0  0  0
   -6.5929   -3.3005  -21.7903 C   0  0  0  0  0  0  0  0  0  0  0  0
   -7.6226   -3.7311  -22.7924 N   0  0  0  0  0  0  0  0  0  0  0  0
   -8.6175   -2.6185  -22.9420 C   0  0  0  0  0  0  0  0  0  0  0  0
   -8.9067   -3.8148  -23.7994 C   0  0  0  0  0  0  0  0  0  0  0  0
  -10.1059   -3.8195  -24.7004 C   0  0  0  0  0  0  0  0  0  0  0  0
  -11.0159   -2.6279  -24.7441 O   0  0  0  0  0  0  0  0  0  0  0  0
  -10.7267   -1.4315  -23.8867 C   0  0  0  0  0  0  0  0  0  0  0  0
  -11.6367   -0.2399  -23.9303 C   0  0  0  0  0  0  0  0  0  0  0  0
  -11.3476    0.9564  -23.0729 C   0  0  0  0  0  0  0  0  0  0  0  0
  -10.1484    0.9611  -22.1718 N   0  0  0  0  0  0  0  0  0  0  0  0
   -9.2384   -0.2305  -22.1282 C   0  0  0  0  0  0  0  0  0  0  0  0
   -9.5275   -1.4268  -22.9856 C   0  0  0  0  0  0  0  0  0  0  0  0
   -8.2026   -1.5003  -22.0322 C   0  0  0  0  0  0  0  0  0  0  0  0
   -8.5600   -0.3865  -21.7035 O   0  0  0  0  0  0  0  0  0  0  0  0
   -6.9513   -1.9219  -21.3204 N   0  0  0  0  0  0  0  0  0  0  0  0
   -7.6421   -4.5926  -23.2684 H   0  0  0  0  0  0  0  0  0  0  0  0
   -6.1919   -1.1077  -20.3153 C   0  0  0  0  0  0  0  0  0  0  0  0
   -6.6037   -1.1223  -18.8730 C   0  0  0  0  0  0  0  0  0  0  0  0
   -5.8443   -0.3081  -17.8679 N   0  0  0  0  0  0  0  0  0  0  0  0
   -4.6730    0.5208  -18.3050 C   0  0  0  0  0  0  0  0  0  0  0  0
   -4.2612    0.5354  -19.7473 C   0  0  0  0  0  0  0  0  0  0  0  0
   -3.0898    1.3643  -20.1845 C   0  0  0  0  0  0  0  0  0  0  0  0
   -2.6781    1.3788  -21.6268 C   0  0  0  0  0  0  0  0  0  0  0  0
   -3.4375    0.5646  -22.6320 C   0  0  0  0  0  0  0  0  0  0  0  0
   -4.6088   -0.2642  -22.1948 C   0  0  0  0  0  0  0  0  0  0  0  0
   -5.0206   -0.2788  -20.7525 C   0  0  0  0  0  0  0  0  0  0  0  0
  1  2  2  0  0  0
  2  3  1  0  0  0
  3  4  1  0  0  0
  4  5  1  0  0  0
  5  6  1  0  0  0
  6  7  1  0  0  0
  7  8  1  0  0  0
  8  9  2  0  0  0
  9 10  1  0  0  0
 10 11  2  0  0  0
 11 12  1  0  0  0
 12 13  2  0  0  0
  4 14  1  0  0  0
 14 15  2  0  0  0
 14 16  1  0  0  0
 16 18  1  0  0  0
 18 19  2  0  0  0
 19 20  1  0  0  0
 20 21  2  0  0  0
 21 22  1  0  0  0
 22 23  2  0  0  0
 23 24  1  0  0  0
 24 25  2  0  0  0
 25 26  1  0  0  0
 26 27  2  0  0  0
 16  2  1  0  0  0
 27 18  1  0  0  0
 13  4  1  0  0  0
 27 22  1  0  0  0
 13  8  1  0  0  0
  3 17  1  0  0  0
M  END
> <minimizedAffinity>
-8.44553

> <CNNscore>
0.6978082657

> <CNNaffinity>
5.5772528648

> <CNN_VS>
3.8918530941

> <CNNaffinity_variance>
0.2011934966

$$$$



 27 31  0  0  0  0  0  0  0  0999 V2000
   -5.2531   -4.4810  -20.7243 O   0  0  0  0  0  0  0  0  0  0  0  0
   -5.7636   -3.6030  -21.8281 C   0  0  0  0  0  0  0  0  0  0  0  0
   -6.1460   -4.0528  -23.2071 N   0  0  0  0  0  0  0  0  0  0  0  0
   -6.6001   -2.8489  -23.9781 C   0  0  0  0  0  0  0  0  0  0  0  0
   -6.6478   -4.1279  -24.7602 C   0  0  0  0  0  0  0  0  0  0  0  0
   -7.1206   -4.1194  -26.1838 C   0  0  0  0  0  0  0  0  0  0  0  0
   -7.5457   -2.8318  -26.8251 O   0  0  0  0  0  0  0  0  0  0  0  0
   -7.4979   -1.5527  -26.0430 C   0  0  0  0  0  0  0  0  0  0  0  0
   -7.9229   -0.2651  -26.6844 C   0  0  0  0  0  0  0  0  0  0  0  0
   -7.8751    1.0140  -25.9023 C   0  0  0  0  0  0  0  0  0  0  0  0
   -7.4024    1.0054  -24.4788 N   0  0  0  0  0  0  0  0  0  0  0  0
   -6.9773   -0.2822  -23.8374 C   0  0  0  0  0  0  0  0  0  0  0  0
   -7.0251   -1.5612  -24.6195 C   0  0  0  0  0  0  0  0  0  0  0  0
   -6.4984   -1.6551  -23.0756 C   0  0  0  0  0  0  0  0  0  0  0  0
   -6.7011   -0.4571  -23.0904 O   0  0  0  0  0  0  0  0  0  0  0  0
   -5.9814   -2.1211  -21.7469 N   0  0  0  0  0  0  0  0  0  0  0  0
   -6.1059   -4.9760  -23.5465 H   0  0  0  0  0  0  0  0  0  0  0  0
   -5.7270   -1.2570  -20.5475 C   0  0  0  0  0  0  0  0  0  0  0  0
   -6.5618   -1.4235  -19.3124 C   0  0  0  0  0  0  0  0  0  0  0  0
   -6.3073   -0.5594  -18.1130 N   0  0  0  0  0  0  0  0  0  0  0  0
   -5.2180    0.4713  -18.1488 C   0  0  0  0  0  0  0  0  0  0  0  0
   -4.3832    0.6378  -19.3838 C   0  0  0  0  0  0  0  0  0  0  0  0
   -3.2939    1.6685  -19.4195 C   0  0  0  0  0  0  0  0  0  0  0  0
   -2.4592    1.8349  -20.6546 C   0  0  0  0  0  0  0  0  0  0  0  0
   -2.7137    0.9708  -21.8540 C   0  0  0  0  0  0  0  0  0  0  0  0
   -3.8029   -0.0599  -21.8183 C   0  0  0  0  0  0  0  0  0  0  0  0
   -4.6377   -0.2264  -20.5832 C   0  0  0  0  0  0  0  0  0  0  0  0
  1  2  2  0  0  0
  2  3  1  0  0  0
  3  4  1  0  0  0
  4  5  1  0  0  0
  5  6  1  0  0  0
  6  7  1  0  0  0
  7  8  1  0  0  0
  8  9  2  0  0  0
  9 10  1  0  0  0
 10 11  2  0  0  0
 11 12  1  0  0  0
 12 13  2  0  0  0
  4 14  1  0  0  0
 14 15  2  0  0  0
 14 16  1  0  0  0
 16 18  1  0  0  0
 18 19  2  0  0  0
 19 20  1  0  0  0
 20 21  2  0  0  0
 21 22  1  0  0  0
 22 23  2  0  0  0
 23 24  1  0  0  0
 24 25  2  0  0  0
 25 26  1  0  0  0
 26 27  2  0  0  0
 16  2  1  0  0  0
 27 18  1  0  0  0
 13  4  1  0  0  0
 27 22  1  0  0  0
 13  8  1  0  0  0
  3 17  1  0  0  0
M  END
> <minimizedAffinity>
-6.88845

> <CNNscore>
0.6935170889

> <CNNaffinity>
5.6343393326

> <CNN_VS>
3.9075105190

> <CNNaffinity_variance>
0.1595137119

$$$$



 27 31  0  0  0  0  0  0  0  0999 V2000
   -6.9544   -0.9843  -21.1853 O   0  0  0  0  0  0  0  0  0  0  0  0
   -7.3393   -2.1149  -22.0929 C   0  0  0  0  0  0  0  0  0  0  0  0
   -6.7254   -3.4834  -22.1057 N   0  0  0  0  0  0  0  0  0  0  0  0
   -7.4124   -4.2898  -23.1677 C   0  0  0  0  0  0  0  0  0  0  0  0
   -6.3393   -5.0370  -22.4328 C   0  0  0  0  0  0  0  0  0  0  0  0
   -6.0402   -6.4632  -22.7888 C   0  0  0  0  0  0  0  0  0  0  0  0
   -6.8143   -7.1421  -23.8796 O   0  0  0  0  0  0  0  0  0  0  0  0
   -7.8875   -6.3949  -24.6145 C   0  0  0  0  0  0  0  0  0  0  0  0
   -8.6616   -7.0738  -25.7053 C   0  0  0  0  0  0  0  0  0  0  0  0
   -9.7347   -6.3265  -26.4401 C   0  0  0  0  0  0  0  0  0  0  0  0
  -10.0337   -4.9004  -26.0841 N   0  0  0  0  0  0  0  0  0  0  0  0
   -9.2596   -4.2215  -24.9934 C   0  0  0  0  0  0  0  0  0  0  0  0
   -8.1865   -4.9687  -24.2585 C   0  0  0  0  0  0  0  0  0  0  0  0
   -8.4510   -3.4196  -23.8112 C   0  0  0  0  0  0  0  0  0  0  0  0
   -9.2959   -3.4683  -24.6830 O   0  0  0  0  0  0  0  0  0  0  0  0
   -8.4058   -2.0754  -23.1469 N   0  0  0  0  0  0  0  0  0  0  0  0
   -5.9990   -3.7973  -21.5199 H   0  0  0  0  0  0  0  0  0  0  0  0
   -9.2746   -0.8985  -23.4785 C   0  0  0  0  0  0  0  0  0  0  0  0
   -8.6604    0.3581  -24.0205 C   0  0  0  0  0  0  0  0  0  0  0  0
   -9.5292    1.5350  -24.3521 N   0  0  0  0  0  0  0  0  0  0  0  0
  -11.0123    1.4554  -24.1417 C   0  0  0  0  0  0  0  0  0  0  0  0
  -11.6265    0.1988  -23.5998 C   0  0  0  0  0  0  0  0  0  0  0  0
  -13.1096    0.1191  -23.3894 C   0  0  0  0  0  0  0  0  0  0  0  0
  -13.7237   -1.1375  -22.8474 C   0  0  0  0  0  0  0  0  0  0  0  0
  -12.8549   -2.3145  -22.5158 C   0  0  0  0  0  0  0  0  0  0  0  0
  -11.3719   -2.2348  -22.7262 C   0  0  0  0  0  0  0  0  0  0  0  0
  -10.7577   -0.9782  -23.2682 C   0  0  0  0  0  0  0  0  0  0  0  0
  1  2  2  0  0  0
  2  3  1  0  0  0
  3  4  1  0  0  0
  4  5  1  0  0  0
  5  6  1  0  0  0
  6  7  1  0  0  0
  7  8  1  0  0  0
  8  9  2  0  0  0
  9 10  1  0  0  0
 10 11  2  0  0  0
 11 12  1  0  0  0
 12 13  2  0  0  0
  4 14  1  0  0  0
 14 15  2  0  0  0
 14 16  1  0  0  0
 16 18  1  0  0  0
 18 19  2  0  0  0
 19 20  1  0  0  0
 20 21  2  0  0  0
 21 22  1  0  0  0
 22 23  2  0  0  0
 23 24  1  0  0  0
 24 25  2  0  0  0
 25 26  1  0  0  0
 26 27  2  0  0  0
 16  2  1  0  0  0
 27 18  1  0  0  0
 13  4  1  0  0  0
 27 22  1  0  0  0
 13  8  1  0  0  0
  3 17  1  0  0  0
M  END
> <minimizedAffinity>
-7.37608

> <CNNscore>
0.4929517806

> <CNNaffinity>
5.6742010117

> <CNN_VS>
2.7971074581

> <CNNaffinity_variance>
0.1073281169

$$$$



 27 31  0  0  0  0  0  0  0  0999 V2000
   -7.2816   -0.8116  -18.7860 O   0  0  0  0  0  0  0  0  0  0  0  0
   -6.2115   -0.4535  -19.7742 C   0  0  0  0  0  0  0  0  0  0  0  0
   -4.9970    0.3814  -19.4947 N   0  0  0  0  0  0  0  0  0  0  0  0
   -4.2028    0.4835  -20.7631 C   0  0  0  0  0  0  0  0  0  0  0  0
   -3.5950    1.2136  -19.6023 C   0  0  0  0  0  0  0  0  0  0  0  0
   -2.3039    1.9569  -19.7768 C   0  0  0  0  0  0  0  0  0  0  0  0
   -1.6206    1.9701  -21.1120 O   0  0  0  0  0  0  0  0  0  0  0  0
   -2.2284    1.2400  -22.2729 C   0  0  0  0  0  0  0  0  0  0  0  0
   -1.5450    1.2533  -23.6081 C   0  0  0  0  0  0  0  0  0  0  0  0
   -2.1529    0.5232  -24.7689 C   0  0  0  0  0  0  0  0  0  0  0  0
   -3.4440   -0.2202  -24.5945 N   0  0  0  0  0  0  0  0  0  0  0  0
   -4.1273   -0.2334  -23.2592 C   0  0  0  0  0  0  0  0  0  0  0  0
   -3.5195    0.4967  -22.0984 C   0  0  0  0  0  0  0  0  0  0  0  0
   -4.9265   -0.2883  -21.8265 C   0  0  0  0  0  0  0  0  0  0  0  0
   -4.8183   -0.5808  -23.0008 O   0  0  0  0  0  0  0  0  0  0  0  0
   -6.1679   -0.8674  -21.2153 N   0  0  0  0  0  0  0  0  0  0  0  0
   -4.7624    0.7905  -18.6306 H   0  0  0  0  0  0  0  0  0  0  0  0
   -7.1868   -1.7120  -21.9212 C   0  0  0  0  0  0  0  0  0  0  0  0
   -6.9284   -3.1735  -22.1393 C   0  0  0  0  0  0  0  0  0  0  0  0
   -7.9473   -4.0181  -22.8452 N   0  0  0  0  0  0  0  0  0  0  0  0
   -9.2246   -3.4013  -23.3332 C   0  0  0  0  0  0  0  0  0  0  0  0
   -9.4830   -1.9399  -23.1151 C   0  0  0  0  0  0  0  0  0  0  0  0
  -10.7603   -1.3231  -23.6031 C   0  0  0  0  0  0  0  0  0  0  0  0
  -11.0186    0.1383  -23.3850 C   0  0  0  0  0  0  0  0  0  0  0  0
   -9.9997    0.9829  -22.6791 C   0  0  0  0  0  0  0  0  0  0  0  0
   -8.7225    0.3662  -22.1911 C   0  0  0  0  0  0  0  0  0  0  0  0
   -8.4641   -1.0953  -22.4092 C   0  0  0  0  0  0  0  0  0  0  0  0
  1  2  2  0  0  0
  2  3  1  0  0  0
  3  4  1  0  0  0
  4  5  1  0  0  0
  5  6  1  0  0  0
  6  7  1  0  0  0
  7  8  1  0  0  0
  8  9  2  0  0  0
  9 10  1  0  0  0
 10 11  2  0  0  0
 11 12  1  0  0  0
 12 13  2  0  0  0
  4 14  1  0  0  0
 14 15  2  0  0  0
 14 16  1  0  0  0
 16 18  1  0  0  0
 18 19  2  0  0  0
 19 20  1  0  0  0
 20 21  2  0  0  0
 21 22  1  0  0  0
 22 23  2  0  0  0
 23 24  1  0  0  0
 24 25  2  0  0  0
 25 26  1  0  0  0
 26 27  2  0  0  0
 16  2  1  0  0  0
 27 18  1  0  0  0
 13  4  1  0  0  0
 27 22  1  0  0  0
 13  8  1  0  0  0
  3 17  1  0  0  0
M  END
> <minimizedAffinity>
-7.58690

> <CNNscore>
0.4453281462

> <CNNaffinity>
5.5065202713

> <CNN_VS>
2.4522085190

> <CNNaffinity_variance>
0.3087682724

$$$$



 27 31  0  0  0  0  0  0  0  0999 V2000
   -8.0852    0.5619  -23.0396 O   0  0  0  0  0  0  0  0  0  0  0  0
   -7.6819   -0.8829  -23.0452 C   0  0  0  0  0  0  0  0  0  0  0  0
   -8.0223   -1.8892  -24.1043 N   0  0  0  0  0  0  0  0  0  0  0  0
   -7.4182   -3.2032  -23.7064 C   0  0  0  0  0  0  0  0  0  0  0  0
   -8.1701   -3.2453  -25.0036 C   0  0  0  0  0  0  0  0  0  0  0  0
   -8.2634   -4.5283  -25.7752 C   0  0  0  0  0  0  0  0  0  0  0  0
   -7.6047   -5.7691  -25.2496 O   0  0  0  0  0  0  0  0  0  0  0  0
   -6.8527   -5.7271  -23.9523 C   0  0  0  0  0  0  0  0  0  0  0  0
   -6.1940   -6.9680  -23.4267 C   0  0  0  0  0  0  0  0  0  0  0  0
   -5.4421   -6.9259  -22.1295 C   0  0  0  0  0  0  0  0  0  0  0  0
   -5.3488   -5.6430  -21.3579 N   0  0  0  0  0  0  0  0  0  0  0  0
   -6.0075   -4.4021  -21.8835 C   0  0  0  0  0  0  0  0  0  0  0  0
   -6.7594   -4.4442  -23.1807 C   0  0  0  0  0  0  0  0  0  0  0  0
   -6.7044   -3.0091  -22.4015 C   0  0  0  0  0  0  0  0  0  0  0  0
   -6.0516   -3.6408  -21.5946 O   0  0  0  0  0  0  0  0  0  0  0  0
   -6.8674   -1.5750  -21.9928 N   0  0  0  0  0  0  0  0  0  0  0  0
   -8.5496   -1.7173  -24.9177 H   0  0  0  0  0  0  0  0  0  0  0  0
   -6.3132   -0.9440  -20.7500 C   0  0  0  0  0  0  0  0  0  0  0  0
   -7.0117   -1.1348  -19.4364 C   0  0  0  0  0  0  0  0  0  0  0  0
   -6.4575   -0.5038  -18.1935 N   0  0  0  0  0  0  0  0  0  0  0  0
   -5.2048    0.3182  -18.2644 C   0  0  0  0  0  0  0  0  0  0  0  0
   -4.5063    0.5090  -19.5780 C   0  0  0  0  0  0  0  0  0  0  0  0
   -3.2534    1.3310  -19.6488 C   0  0  0  0  0  0  0  0  0  0  0  0
   -2.5550    1.5218  -20.9625 C   0  0  0  0  0  0  0  0  0  0  0  0
   -3.1092    0.8908  -22.2053 C   0  0  0  0  0  0  0  0  0  0  0  0
   -4.3619    0.0689  -22.1345 C   0  0  0  0  0  0  0  0  0  0  0  0
   -5.0605   -0.1220  -20.8208 C   0  0  0  0  0  0  0  0  0  0  0  0
  1  2  2  0  0  0
  2  3  1  0  0  0
  3  4  1  0  0  0
  4  5  1  0  0  0
  5  6  1  0  0  0
  6  7  1  0  0  0
  7  8  1  0  0  0
  8  9  2  0  0  0
  9 10  1  0  0  0
 10 11  2  0  0  0
 11 12  1  0  0  0
 12 13  2  0  0  0
  4 14  1  0  0  0
 14 15  2  0  0  0
 14 16  1  0  0  0
 16 18  1  0  0  0
 18 19  2  0  0  0
 19 20  1  0  0  0
 20 21  2  0  0  0
 21 22  1  0  0  0
 22 23  2  0  0  0
 23 24  1  0  0  0
 24 25  2  0  0  0
 25 26  1  0  0  0
 26 27  2  0  0  0
 16  2  1  0  0  0
 27 18  1  0  0  0
 13  4  1  0  0  0
 27 22  1  0  0  0
 13  8  1  0  0  0
  3 17  1  0  0  0
M  END
> <minimizedAffinity>
-8.15874

> <CNNscore>
0.4185560942

> <CNNaffinity>
5.2288570404

> <CNN_VS>
2.1885700226

> <CNNaffinity_variance>
0.2289685309

$$$$



 27 31  0  0  0  0  0  0  0  0999 V2000
   -8.0444   -0.6257  -25.8455 O   0  0  0  0  0  0  0  0  0  0  0  0
   -7.4746   -0.5217  -24.4619 C   0  0  0  0  0  0  0  0  0  0  0  0
   -6.0639   -0.1481  -24.1151 N   0  0  0  0  0  0  0  0  0  0  0  0
   -5.9329   -0.1685  -22.6210 C   0  0  0  0  0  0  0  0  0  0  0  0
   -4.6699    0.2047  -23.3391 C   0  0  0  0  0  0  0  0  0  0  0  0
   -3.4273    0.5158  -22.5586 C   0  0  0  0  0  0  0  0  0  0  0  0
   -3.4476    0.4538  -21.0601 O   0  0  0  0  0  0  0  0  0  0  0  0
   -4.7106    0.0805  -20.3419 C   0  0  0  0  0  0  0  0  0  0  0  0
   -4.7309    0.0184  -18.8434 C   0  0  0  0  0  0  0  0  0  0  0  0
   -5.9938   -0.3548  -18.1253 C   0  0  0  0  0  0  0  0  0  0  0  0
   -7.2364   -0.6660  -18.9057 N   0  0  0  0  0  0  0  0  0  0  0  0
   -7.2161   -0.6039  -20.4043 C   0  0  0  0  0  0  0  0  0  0  0  0
   -5.9532   -0.2306  -21.1224 C   0  0  0  0  0  0  0  0  0  0  0  0
   -7.2626   -0.5548  -22.0444 C   0  0  0  0  0  0  0  0  0  0  0  0
   -7.7911   -0.7403  -20.9661 O   0  0  0  0  0  0  0  0  0  0  0  0
   -8.2155   -0.7730  -23.1821 N   0  0  0  0  0  0  0  0  0  0  0  0
   -5.3494    0.0719  -24.7557 H   0  0  0  0  0  0  0  0  0  0  0  0
   -9.6563   -1.1725  -23.0612 C   0  0  0  0  0  0  0  0  0  0  0  0
  -10.0167   -2.5951  -22.7510 C   0  0  0  0  0  0  0  0  0  0  0  0
  -11.4574   -2.9946  -22.6301 N   0  0  0  0  0  0  0  0  0  0  0  0
  -12.5378   -1.9714  -22.8194 C   0  0  0  0  0  0  0  0  0  0  0  0
  -12.1774   -0.5487  -23.1296 C   0  0  0  0  0  0  0  0  0  0  0  0
  -13.2578    0.4745  -23.3188 C   0  0  0  0  0  0  0  0  0  0  0  0
  -12.8973    1.8971  -23.6290 C   0  0  0  0  0  0  0  0  0  0  0  0
  -11.4566    2.2966  -23.7499 C   0  0  0  0  0  0  0  0  0  0  0  0
  -10.3762    1.2734  -23.5606 C   0  0  0  0  0  0  0  0  0  0  0  0
  -10.7366   -0.1493  -23.2505 C   0  0  0  0  0  0  0  0  0  0  0  0
  1  2  2  0  0  0
  2  3  1  0  0  0
  3  4  1  0  0  0
  4  5  1  0  0  0
  5  6  1  0  0  0
  6  7  1  0  0  0
  7  8  1  0  0  0
  8  9  2  0  0  0
  9 10  1  0  0  0
 10 11  2  0  0  0
 11 12  1  0  0  0
 12 13  2  0  0  0
  4 14  1  0  0  0
 14 15  2  0  0  0
 14 16  1  0  0  0
 16 18  1  0  0  0
 18 19  2  0  0  0
 19 20  1  0  0  0
 20 21  2  0  0  0
 21 22  1  0  0  0
 22 23  2  0  0  0
 23 24  1  0  0  0
 24 25  2  0  0  0
 25 26  1  0  0  0
 26 27  2  0  0  0
 16  2  1  0  0  0
 27 18  1  0  0  0
 13  4  1  0  0  0
 27 22  1  0  0  0
 13  8  1  0  0  0
  3 17  1  0  0  0
M  END
> <minimizedAffinity>
-8.39145

> <CNNscore>
0.4118793905

> <CNNaffinity>
5.0940947533

> <CNN_VS>
2.0981526375

> <CNNaffinity_variance>
0.4330348969

$$$$



 27 31  0  0  0  0  0  0  0  0999 V2000
   -5.5461   -4.3145  -20.0344 O   0  0  0  0  0  0  0  0  0  0  0  0
   -5.5455   -2.9243  -20.5978 C   0  0  0  0  0  0  0  0  0  0  0  0
   -4.9527   -1.7096  -19.9474 N   0  0  0  0  0  0  0  0  0  0  0  0
   -5.1784   -0.5393  -20.8581 C   0  0  0  0  0  0  0  0  0  0  0  0
   -4.4501   -0.1959  -19.5925 C   0  0  0  0  0  0  0  0  0  0  0  0
   -4.0192    1.2176  -19.3351 C   0  0  0  0  0  0  0  0  0  0  0  0
   -4.3165    2.2877  -20.3432 O   0  0  0  0  0  0  0  0  0  0  0  0
   -5.0448    1.9443  -21.6089 C   0  0  0  0  0  0  0  0  0  0  0  0
   -5.3422    3.0145  -22.6170 C   0  0  0  0  0  0  0  0  0  0  0  0
   -6.0705    2.6711  -23.8825 C   0  0  0  0  0  0  0  0  0  0  0  0
   -6.5014    1.2576  -24.1399 N   0  0  0  0  0  0  0  0  0  0  0  0
   -6.2041    0.1875  -23.1318 C   0  0  0  0  0  0  0  0  0  0  0  0
   -5.4758    0.5308  -21.8663 C   0  0  0  0  0  0  0  0  0  0  0  0
   -5.9108   -1.0307  -22.0714 C   0  0  0  0  0  0  0  0  0  0  0  0
   -6.3650   -0.6118  -23.1176 O   0  0  0  0  0  0  0  0  0  0  0  0
   -6.1377   -2.5047  -21.9106 N   0  0  0  0  0  0  0  0  0  0  0  0
   -4.4956   -1.6849  -19.0757 H   0  0  0  0  0  0  0  0  0  0  0  0
   -6.8344   -3.4016  -22.8904 C   0  0  0  0  0  0  0  0  0  0  0  0
   -6.0552   -4.4393  -23.6428 C   0  0  0  0  0  0  0  0  0  0  0  0
   -6.7519   -5.3362  -24.6227 N   0  0  0  0  0  0  0  0  0  0  0  0
   -8.2278   -5.1954  -24.8502 C   0  0  0  0  0  0  0  0  0  0  0  0
   -9.0070   -4.1577  -24.0978 C   0  0  0  0  0  0  0  0  0  0  0  0
  -10.4831   -4.0169  -24.3253 C   0  0  0  0  0  0  0  0  0  0  0  0
  -11.2622   -2.9792  -23.5729 C   0  0  0  0  0  0  0  0  0  0  0  0
  -10.5655   -2.0823  -22.5931 C   0  0  0  0  0  0  0  0  0  0  0  0
   -9.0895   -2.2231  -22.3656 C   0  0  0  0  0  0  0  0  0  0  0  0
   -8.3103   -3.2608  -23.1179 C   0  0  0  0  0  0  0  0  0  0  0  0
  1  2  2  0  0  0
  2  3  1  0  0  0
  3  4  1  0  0  0
  4  5  1  0  0  0
  5  6  1  0  0  0
  6  7  1  0  0  0
  7  8  1  0  0  0
  8  9  2  0  0  0
  9 10  1  0  0  0
 10 11  2  0  0  0
 11 12  1  0  0  0
 12 13  2  0  0  0
  4 14  1  0  0  0
 14 15  2  0  0  0
 14 16  1  0  0  0
 16 18  1  0  0  0
 18 19  2  0  0  0
 19 20  1  0  0  0
 20 21  2  0  0  0
 21 22  1  0  0  0
 22 23  2  0  0  0
 23 24  1  0  0  0
 24 25  2  0  0  0
 25 26  1  0  0  0
 26 27  2  0  0  0
 16  2  1  0  0  0
 27 18  1  0  0  0
 13  4  1  0  0  0
 27 22  1  0  0  0
 13  8  1  0  0  0
  3 17  1  0  0  0
M  END
> <minimizedAffinity>
-6.75669

> <CNNscore>
0.4075109661

> <CNNaffinity>
5.6247472763

> <CNN_VS>
2.2921462059

> <CNNaffinity_variance>
0.2612877488

$$$$



 27 31  0  0  0  0  0  0  0  0999 V2000
   -8.3611   -0.4135  -21.0004 O   0  0  0  0  0  0  0  0  0  0  0  0
   -8.4470   -1.5874  -21.9303 C   0  0  0  0  0  0  0  0  0  0  0  0
   -7.4394   -2.6919  -22.0513 N   0  0  0  0  0  0  0  0  0  0  0  0
   -7.9252   -3.6500  -23.0982 C   0  0  0  0  0  0  0  0  0  0  0  0
   -6.6154   -4.0369  -22.4778 C   0  0  0  0  0  0  0  0  0  0  0  0
   -5.9161   -5.2878  -22.9209 C   0  0  0  0  0  0  0  0  0  0  0  0
   -6.5265   -6.1518  -23.9843 O   0  0  0  0  0  0  0  0  0  0  0  0
   -7.8364   -5.7649  -24.6047 C   0  0  0  0  0  0  0  0  0  0  0  0
   -8.4468   -6.6289  -25.6681 C   0  0  0  0  0  0  0  0  0  0  0  0
   -9.7565   -6.2420  -26.2884 C   0  0  0  0  0  0  0  0  0  0  0  0
  -10.4558   -4.9912  -25.8454 N   0  0  0  0  0  0  0  0  0  0  0  0
   -9.8454   -4.1272  -24.7820 C   0  0  0  0  0  0  0  0  0  0  0  0
   -8.5357   -4.5141  -24.1616 C   0  0  0  0  0  0  0  0  0  0  0  0
   -9.2331   -3.1377  -23.6242 C   0  0  0  0  0  0  0  0  0  0  0  0
  -10.0895   -3.4309  -24.4348 O   0  0  0  0  0  0  0  0  0  0  0  0
   -9.5557   -1.8629  -22.9024 N   0  0  0  0  0  0  0  0  0  0  0  0
   -6.6055   -2.7737  -21.5343 H   0  0  0  0  0  0  0  0  0  0  0  0
  -10.7731   -1.0129  -23.1154 C   0  0  0  0  0  0  0  0  0  0  0  0
  -12.1392   -1.5888  -22.8872 C   0  0  0  0  0  0  0  0  0  0  0  0
  -13.3566   -0.7387  -23.1002 N   0  0  0  0  0  0  0  0  0  0  0  0
  -13.2079    0.6872  -23.5414 C   0  0  0  0  0  0  0  0  0  0  0  0
  -11.8417    1.2631  -23.7695 C   0  0  0  0  0  0  0  0  0  0  0  0
  -11.6930    2.6891  -24.2107 C   0  0  0  0  0  0  0  0  0  0  0  0
  -10.3269    3.2649  -24.4388 C   0  0  0  0  0  0  0  0  0  0  0  0
   -9.1095    2.4148  -24.2258 C   0  0  0  0  0  0  0  0  0  0  0  0
   -9.2582    0.9889  -23.7847 C   0  0  0  0  0  0  0  0  0  0  0  0
  -10.6243    0.4130  -23.5565 C   0  0  0  0  0  0  0  0  0  0  0  0
  1  2  2  0  0  0
  2  3  1  0  0  0
  3  4  1  0  0  0
  4  5  1  0  0  0
  5  6  1  0  0  0
  6  7  1  0  0  0
  7  8  1  0  0  0
  8  9  2  0  0  0
  9 10  1  0  0  0
 10 11  2  0  0  0
 11 12  1  0  0  0
 12 13  2  0  0  0
  4 14  1  0  0  0
 14 15  2  0  0  0
 14 16  1  0  0  0
 16 18  1  0  0  0
 18 19  2  0  0  0
 19 20  1  0  0  0
 20 21  2  0  0  0
 21 22  1  0  0  0
 22 23  2  0  0  0
 23 24  1  0  0  0
 24 25  2  0  0  0
 25 26  1  0  0  0
 26 27  2  0  0  0
 16  2  1  0  0  0
 27 18  1  0  0  0
 13  4  1  0  0  0
 27 22  1  0  0  0
 13  8  1  0  0  0
  3 17  1  0  0  0
M  END
> <minimizedAffinity>
-7.55102

> <CNNscore>
0.4067455828

> <CNNaffinity>
5.4238672256

> <CNN_VS>
2.2061340809

> <CNNaffinity_variance>
0.3084816337

$$$$



 27 31  0  0  0  0  0  0  0  0999 V2000
   -5.3960   -4.4210  -20.4589 O   0  0  0  0  0  0  0  0  0  0  0  0
   -5.6734   -4.8551  -21.8676 C   0  0  0  0  0  0  0  0  0  0  0  0
   -5.0311   -6.0102  -22.5770 N   0  0  0  0  0  0  0  0  0  0  0  0
   -5.6025   -6.0793  -23.9622 C   0  0  0  0  0  0  0  0  0  0  0  0
   -4.5835   -7.1403  -23.6689 C   0  0  0  0  0  0  0  0  0  0  0  0
   -4.2228   -8.1453  -24.7224 C   0  0  0  0  0  0  0  0  0  0  0  0
   -4.8811   -8.0894  -26.0691 O   0  0  0  0  0  0  0  0  0  0  0  0
   -5.9000   -7.0283  -26.3623 C   0  0  0  0  0  0  0  0  0  0  0  0
   -6.5583   -6.9724  -27.7090 C   0  0  0  0  0  0  0  0  0  0  0  0
   -7.5772   -5.9114  -28.0022 C   0  0  0  0  0  0  0  0  0  0  0  0
   -7.9379   -4.9063  -26.9488 N   0  0  0  0  0  0  0  0  0  0  0  0
   -7.2797   -4.9623  -25.6021 C   0  0  0  0  0  0  0  0  0  0  0  0
   -6.2607   -6.0233  -25.3089 C   0  0  0  0  0  0  0  0  0  0  0  0
   -6.5979   -4.9668  -24.1089 C   0  0  0  0  0  0  0  0  0  0  0  0
   -7.3600   -4.5024  -24.9335 O   0  0  0  0  0  0  0  0  0  0  0  0
   -6.6417   -4.2102  -22.8145 N   0  0  0  0  0  0  0  0  0  0  0  0
   -4.3535   -6.6166  -22.1996 H   0  0  0  0  0  0  0  0  0  0  0  0
   -7.5027   -3.0180  -22.5188 C   0  0  0  0  0  0  0  0  0  0  0  0
   -8.9950   -3.1633  -22.4732 C   0  0  0  0  0  0  0  0  0  0  0  0
   -9.8559   -1.9712  -22.1775 N   0  0  0  0  0  0  0  0  0  0  0  0
   -9.2247   -0.6337  -21.9274 C   0  0  0  0  0  0  0  0  0  0  0  0
   -7.7324   -0.4884  -21.9730 C   0  0  0  0  0  0  0  0  0  0  0  0
   -7.1011    0.8492  -21.7228 C   0  0  0  0  0  0  0  0  0  0  0  0
   -5.6089    0.9945  -21.7685 C   0  0  0  0  0  0  0  0  0  0  0  0
   -4.7479   -0.1977  -22.0642 C   0  0  0  0  0  0  0  0  0  0  0  0
   -5.3791   -1.5352  -22.3143 C   0  0  0  0  0  0  0  0  0  0  0  0
   -6.8714   -1.6805  -22.2687 C   0  0  0  0  0  0  0  0  0  0  0  0
  1  2  2  0  0  0
  2  3  1  0  0  0
  3  4  1  0  0  0
  4  5  1  0  0  0
  5  6  1  0  0  0
  6  7  1  0  0  0
  7  8  1  0  0  0
  8  9  2  0  0  0
  9 10  1  0  0  0
 10 11  2  0  0  0
 11 12  1  0  0  0
 12 13  2  0  0  0
  4 14  1  0  0  0
 14 15  2  0  0  0
 14 16  1  0  0  0
 16 18  1  0  0  0
 18 19  2  0  0  0
 19 20  1  0  0  0
 20 21  2  0  0  0
 21 22  1  0  0  0
 22 23  2  0  0  0
 23 24  1  0  0  0
 24 25  2  0  0  0
 25 26  1  0  0  0
 26 27  2  0  0  0
 16  2  1  0  0  0
 27 18  1  0  0  0
 13  4  1  0  0  0
 27 22  1  0  0  0
 13  8  1  0  0  0
  3 17  1  0  0  0
M  END
> <minimizedAffinity>
-6.99404

> <CNNscore>
0.3174433708

> <CNNaffinity>
5.4160904884

> <CNN_VS>
1.7193020582

> <CNNaffinity_variance>
0.2244757861

$$$$
