


 34 39  0  0  0  0  0  0  0  0999 V2000
   -9.5342   -2.4830  -23.6784 C   0  0  0  0  0  0  0  0  0  0  0  0
   -8.2922   -2.7064  -22.8675 C   0  0  0  0  0  0  0  0  0  0  0  0
   -8.0220   -1.5684  -21.9284 C   0  0  0  0  0  0  0  0  0  0  0  0
   -6.7684   -1.8831  -21.1672 N   0  0  0  0  0  0  0  0  0  0  0  0
   -6.2639   -3.2157  -21.6359 C   0  0  0  0  0  0  0  0  0  0  0  0
   -5.0335   -3.9164  -21.1406 O   0  0  0  0  0  0  0  0  0  0  0  0
   -7.2056   -3.7246  -22.6867 C   0  0  0  0  0  0  0  0  0  0  0  0
   -6.0583   -4.6466  -22.3975 C   0  0  0  0  0  0  0  0  0  0  0  0
   -5.9351   -5.9455  -23.1376 N   0  0  0  0  0  0  0  0  0  0  0  0
   -6.9591   -6.3223  -24.1668 C   0  0  0  0  0  0  0  0  0  0  0  0
   -6.8359   -7.6212  -24.9069 O   0  0  0  0  0  0  0  0  0  0  0  0
   -8.1064   -5.4003  -24.4560 C   0  0  0  0  0  0  0  0  0  0  0  0
   -9.1305   -5.7772  -25.4852 C   0  0  0  0  0  0  0  0  0  0  0  0
  -10.2777   -4.8551  -25.7744 C   0  0  0  0  0  0  0  0  0  0  0  0
  -10.4009   -3.5562  -25.0343 C   0  0  0  0  0  0  0  0  0  0  0  0
  -11.5483   -2.6342  -25.3235 F   0  0  0  0  0  0  0  0  0  0  0  0
   -9.3769   -3.1794  -24.0051 C   0  0  0  0  0  0  0  0  0  0  0  0
   -8.2297   -4.1014  -23.7159 C   0  0  0  0  0  0  0  0  0  0  0  0
   -6.1313   -1.0173  -20.1211 C   0  0  0  0  0  0  0  0  0  0  0  0
   -6.6825   -0.9977  -18.7263 C   0  0  0  0  0  0  0  0  0  0  0  0
   -6.0453   -0.1319  -17.6801 N   0  0  0  0  0  0  0  0  0  0  0  0
   -4.8569    0.7142  -18.0289 C   0  0  0  0  0  0  0  0  0  0  0  0
   -4.3056    0.6945  -19.4238 C   0  0  0  0  0  0  0  0  0  0  0  0
   -3.1171    1.5407  -19.7725 C   0  0  0  0  0  0  0  0  0  0  0  0
   -2.5659    1.5210  -21.1675 C   0  0  0  0  0  0  0  0  0  0  0  0
   -3.2031    0.6552  -22.2135 C   0  0  0  0  0  0  0  0  0  0  0  0
   -4.3915   -0.1909  -21.8647 C   0  0  0  0  0  0  0  0  0  0  0  0
   -4.9428   -0.1713  -20.4699 C   0  0  0  0  0  0  0  0  0  0  0  0
   -4.7878   -6.8675  -22.8484 C   0  0  0  0  0  0  0  0  0  0  0  0
   -3.5519   -6.8159  -23.6968 C   0  0  0  0  0  0  0  0  0  0  0  0
   -3.4919   -6.4278  -25.1445 N   0  0  0  0  0  0  0  0  0  0  0  0
   -2.0619   -6.5154  -25.5889 C   0  0  0  0  0  0  0  0  0  0  0  0
   -1.2381   -6.9577  -24.4160 C   0  0  0  0  0  0  0  0  0  0  0  0
   -2.1590   -7.1434  -23.2466 O   0  0  0  0  0  0  0  0  0  0  0  0
  2  1  1  0  0  0
  2  3  1  0  0  0
  3  4  1  0  0  0
  4 19  1  0  0  0
 19 20  2  0  0  0
 20 21  1  0  0  0
 21 22  2  0  0  0
 22 23  1  0  0  0
 23 24  2  0  0  0
 24 25  1  0  0  0
 25 26  2  0  0  0
 26 27  1  0  0  0
 27 28  2  0  0  0
  4  5  1  0  0  0
  5  6  2  0  0  0
  5  7  1  0  0  0
  7  8  1  0  0  0
  8  9  1  0  0  0
  9 29  1  0  0  0
 29 30  1  0  0  0
 30 31  2  0  0  0
 31 32  1  0  0  0
 32 33  2  0  0  0
 33 34  1  0  0  0
  9 10  1  0  0  0
 10 11  2  0  0  0
 10 12  1  0  0  0
 12 13  2  0  0  0
 13 14  1  0  0  0
 14 15  2  0  0  0
 15 16  1  0  0  0
 15 17  1  0  0  0
 17 18  2  0  0  0
  7  2  1  0  0  0
 34 30  1  0  0  0
 18 12  1  0  0  0
 28 19  1  0  0  0
 18  7  1  0  0  0
 28 23  1  0  0  0
M  END
> <minimizedAffinity>
-8.33543

> <CNNscore>
0.5997591019

> <CNNaffinity>
6.5230560303

> <CNN_VS>
3.9122622013

> <CNNaffinity_variance>
0.1203737855

$$$$



 34 39  0  0  0  0  0  0  0  0999 V2000
   -7.2512    0.1732  -21.4093 C   0  0  0  0  0  0  0  0  0  0  0  0
   -8.5003    0.0563  -22.2315 C   0  0  0  0  0  0  0  0  0  0  0  0
   -9.2510    1.3531  -22.3004 C   0  0  0  0  0  0  0  0  0  0  0  0
  -10.4758    1.1357  -23.1386 N   0  0  0  0  0  0  0  0  0  0  0  0
  -10.4821   -0.2955  -23.5877 C   0  0  0  0  0  0  0  0  0  0  0  0
  -11.5260   -0.9454  -24.4467 O   0  0  0  0  0  0  0  0  0  0  0  0
   -9.2612   -0.9626  -23.0271 C   0  0  0  0  0  0  0  0  0  0  0  0
  -10.1262   -1.8680  -23.8530 C   0  0  0  0  0  0  0  0  0  0  0  0
   -9.7348   -3.3021  -24.0529 N   0  0  0  0  0  0  0  0  0  0  0  0
   -8.4784   -3.8310  -23.4269 C   0  0  0  0  0  0  0  0  0  0  0  0
   -8.0870   -5.2651  -23.6268 O   0  0  0  0  0  0  0  0  0  0  0  0
   -7.6133   -2.9256  -22.6011 C   0  0  0  0  0  0  0  0  0  0  0  0
   -6.3570   -3.4544  -21.9751 C   0  0  0  0  0  0  0  0  0  0  0  0
   -5.4920   -2.5490  -21.1493 C   0  0  0  0  0  0  0  0  0  0  0  0
   -5.8833   -1.1149  -20.9494 C   0  0  0  0  0  0  0  0  0  0  0  0
   -5.0183   -0.2095  -20.1235 F   0  0  0  0  0  0  0  0  0  0  0  0
   -7.1397   -0.5860  -21.5753 C   0  0  0  0  0  0  0  0  0  0  0  0
   -8.0047   -1.4914  -22.4011 C   0  0  0  0  0  0  0  0  0  0  0  0
  -11.5124    2.1682  -23.4696 C   0  0  0  0  0  0  0  0  0  0  0  0
  -12.8004    2.2106  -22.7021 C   0  0  0  0  0  0  0  0  0  0  0  0
  -13.8370    3.2431  -23.0331 N   0  0  0  0  0  0  0  0  0  0  0  0
  -13.5855    4.2331  -24.1315 C   0  0  0  0  0  0  0  0  0  0  0  0
  -12.2974    4.1906  -24.8991 C   0  0  0  0  0  0  0  0  0  0  0  0
  -12.0459    5.1806  -25.9976 C   0  0  0  0  0  0  0  0  0  0  0  0
  -10.7578    5.1380  -26.7650 C   0  0  0  0  0  0  0  0  0  0  0  0
   -9.7213    4.1056  -26.4340 C   0  0  0  0  0  0  0  0  0  0  0  0
   -9.9728    3.1156  -25.3356 C   0  0  0  0  0  0  0  0  0  0  0  0
  -11.2608    3.1581  -24.5681 C   0  0  0  0  0  0  0  0  0  0  0  0
  -10.5999   -4.2075  -24.8788 C   0  0  0  0  0  0  0  0  0  0  0  0
   -9.9926   -5.0273  -25.9783 C   0  0  0  0  0  0  0  0  0  0  0  0
   -9.4849   -4.5054  -27.2897 N   0  0  0  0  0  0  0  0  0  0  0  0
   -8.9649   -5.6685  -28.0815 C   0  0  0  0  0  0  0  0  0  0  0  0
   -9.1513   -6.9093  -27.2594 C   0  0  0  0  0  0  0  0  0  0  0  0
   -9.7864   -6.5130  -25.9596 O   0  0  0  0  0  0  0  0  0  0  0  0
  2  1  1  0  0  0
  2  3  1  0  0  0
  3  4  1  0  0  0
  4 19  1  0  0  0
 19 20  2  0  0  0
 20 21  1  0  0  0
 21 22  2  0  0  0
 22 23  1  0  0  0
 23 24  2  0  0  0
 24 25  1  0  0  0
 25 26  2  0  0  0
 26 27  1  0  0  0
 27 28  2  0  0  0
  4  5  1  0  0  0
  5  6  2  0  0  0
  5  7  1  0  0  0
  7  8  1  0  0  0
  8  9  1  0  0  0
  9 29  1  0  0  0
 29 30  1  0  0  0
 30 31  2  0  0  0
 31 32  1  0  0  0
 32 33  2  0  0  0
 33 34  1  0  0  0
  9 10  1  0  0  0
 10 11  2  0  0  0
 10 12  1  0  0  0
 12 13  2  0  0  0
 13 14  1  0  0  0
 14 15  2  0  0  0
 15 16  1  0  0  0
 15 17  1  0  0  0
 17 18  2  0  0  0
  7  2  1  0  0  0
 34 30  1  0  0  0
 18 12  1  0  0  0
 28 19  1  0  0  0
 18  7  1  0  0  0
 28 23  1  0  0  0
M  END
> <minimizedAffinity>
-8.71362

> <CNNscore>
0.5327140689

> <CNNaffinity>
6.2808814049

> <CNN_VS>
3.3459138870

> <CNNaffinity_variance>
0.1974945515

$$$$



 34 39  0  0  0  0  0  0  0  0999 V2000
  -11.0520   -2.0734  -24.1757 C   0  0  0  0  0  0  0  0  0  0  0  0
  -10.6319   -0.6715  -23.8468 C   0  0  0  0  0  0  0  0  0  0  0  0
  -11.7930    0.2781  -23.8488 C   0  0  0  0  0  0  0  0  0  0  0  0
  -11.2748    1.6447  -23.5113 N   0  0  0  0  0  0  0  0  0  0  0  0
   -9.7933    1.5397  -23.3008 C   0  0  0  0  0  0  0  0  0  0  0  0
   -8.8712    2.6680  -22.9453 O   0  0  0  0  0  0  0  0  0  0  0  0
   -9.3960    0.1082  -23.5081 C   0  0  0  0  0  0  0  0  0  0  0  0
   -8.2525    1.0144  -23.1600 C   0  0  0  0  0  0  0  0  0  0  0  0
   -6.8633    0.4600  -23.0483 N   0  0  0  0  0  0  0  0  0  0  0  0
   -6.6174   -1.0007  -23.2847 C   0  0  0  0  0  0  0  0  0  0  0  0
   -5.2282   -1.5552  -23.1730 O   0  0  0  0  0  0  0  0  0  0  0  0
   -7.7609   -1.9070  -23.6329 C   0  0  0  0  0  0  0  0  0  0  0  0
   -7.5151   -3.3677  -23.8693 C   0  0  0  0  0  0  0  0  0  0  0  0
   -8.6585   -4.2739  -24.2174 C   0  0  0  0  0  0  0  0  0  0  0  0
  -10.0478   -3.7195  -24.3291 C   0  0  0  0  0  0  0  0  0  0  0  0
  -11.1913   -4.6258  -24.6773 F   0  0  0  0  0  0  0  0  0  0  0  0
  -10.2936   -2.2588  -24.0927 C   0  0  0  0  0  0  0  0  0  0  0  0
   -9.1502   -1.3526  -23.7446 C   0  0  0  0  0  0  0  0  0  0  0  0
  -12.0941    2.8965  -23.4033 C   0  0  0  0  0  0  0  0  0  0  0  0
  -13.0831    3.0515  -22.2864 C   0  0  0  0  0  0  0  0  0  0  0  0
  -13.9024    4.3034  -22.1784 N   0  0  0  0  0  0  0  0  0  0  0  0
  -13.7326    5.4002  -23.1874 C   0  0  0  0  0  0  0  0  0  0  0  0
  -12.7435    5.2452  -24.3044 C   0  0  0  0  0  0  0  0  0  0  0  0
  -12.5737    6.3421  -25.3135 C   0  0  0  0  0  0  0  0  0  0  0  0
  -11.5846    6.1870  -26.4304 C   0  0  0  0  0  0  0  0  0  0  0  0
  -10.7654    4.9352  -26.5384 C   0  0  0  0  0  0  0  0  0  0  0  0
  -10.9352    3.8383  -25.5294 C   0  0  0  0  0  0  0  0  0  0  0  0
  -11.9242    3.9933  -24.4124 C   0  0  0  0  0  0  0  0  0  0  0  0
   -5.7198    1.3663  -22.7001 C   0  0  0  0  0  0  0  0  0  0  0  0
   -5.0222    1.2204  -21.3803 C   0  0  0  0  0  0  0  0  0  0  0  0
   -3.7481    1.9013  -20.9765 N   0  0  0  0  0  0  0  0  0  0  0  0
   -3.4147    1.4698  -19.5791 C   0  0  0  0  0  0  0  0  0  0  0  0
   -4.4828    0.5223  -19.1192 C   0  0  0  0  0  0  0  0  0  0  0  0
   -5.4762    0.3682  -20.2324 O   0  0  0  0  0  0  0  0  0  0  0  0
  2  1  1  0  0  0
  2  3  1  0  0  0
  3  4  1  0  0  0
  4 19  1  0  0  0
 19 20  2  0  0  0
 20 21  1  0  0  0
 21 22  2  0  0  0
 22 23  1  0  0  0
 23 24  2  0  0  0
 24 25  1  0  0  0
 25 26  2  0  0  0
 26 27  1  0  0  0
 27 28  2  0  0  0
  4  5  1  0  0  0
  5  6  2  0  0  0
  5  7  1  0  0  0
  7  8  1  0  0  0
  8  9  1  0  0  0
  9 29  1  0  0  0
 29 30  1  0  0  0
 30 31  2  0  0  0
 31 32  1  0  0  0
 32 33  2  0  0  0
 33 34  1  0  0  0
  9 10  1  0  0  0
 10 11  2  0  0  0
 10 12  1  0  0  0
 12 13  2  0  0  0
 13 14  1  0  0  0
 14 15  2  0  0  0
 15 16  1  0  0  0
 15 17  1  0  0  0
 17 18  2  0  0  0
  7  2  1  0  0  0
 34 30  1  0  0  0
 18 12  1  0  0  0
 28 19  1  0  0  0
 18  7  1  0  0  0
 28 23  1  0  0  0
M  END
> <minimizedAffinity>
-7.88525

> <CNNscore>
0.3276792169

> <CNNaffinity>
6.1691446304

> <CNN_VS>
2.0215005875

> <CNNaffinity_variance>
0.1209248453

$$$$



 34 39  0  0  0  0  0  0  0  0999 V2000
   -5.7474   -5.4826  -23.3442 C   0  0  0  0  0  0  0  0  0  0  0  0
   -6.4008   -4.2739  -22.7422 C   0  0  0  0  0  0  0  0  0  0  0  0
   -5.5231   -3.6098  -21.7230 C   0  0  0  0  0  0  0  0  0  0  0  0
   -6.2593   -2.4200  -21.1822 N   0  0  0  0  0  0  0  0  0  0  0  0
   -7.5920   -2.3489  -21.8671 C   0  0  0  0  0  0  0  0  0  0  0  0
   -8.6512   -1.3137  -21.6295 O   0  0  0  0  0  0  0  0  0  0  0  0
   -7.6794   -3.4947  -22.8312 C   0  0  0  0  0  0  0  0  0  0  0  0
   -8.8979   -2.6203  -22.8108 C   0  0  0  0  0  0  0  0  0  0  0  0
  -10.0599   -2.9320  -23.7066 N   0  0  0  0  0  0  0  0  0  0  0  0
  -10.0034   -4.1183  -24.6229 C   0  0  0  0  0  0  0  0  0  0  0  0
  -11.1654   -4.4300  -25.5188 O   0  0  0  0  0  0  0  0  0  0  0  0
   -8.7848   -4.9928  -24.6434 C   0  0  0  0  0  0  0  0  0  0  0  0
   -8.7283   -6.1790  -25.5597 C   0  0  0  0  0  0  0  0  0  0  0  0
   -7.5097   -7.0534  -25.5801 C   0  0  0  0  0  0  0  0  0  0  0  0
   -6.3477   -6.7416  -24.6843 C   0  0  0  0  0  0  0  0  0  0  0  0
   -5.1291   -7.6162  -24.7047 F   0  0  0  0  0  0  0  0  0  0  0  0
   -6.4043   -5.5554  -23.7680 C   0  0  0  0  0  0  0  0  0  0  0  0
   -7.6228   -4.6810  -23.7475 C   0  0  0  0  0  0  0  0  0  0  0  0
   -5.7520   -1.4685  -20.1395 C   0  0  0  0  0  0  0  0  0  0  0  0
   -6.1841   -1.6208  -18.7113 C   0  0  0  0  0  0  0  0  0  0  0  0
   -5.6768   -0.6693  -17.6687 N   0  0  0  0  0  0  0  0  0  0  0  0
   -4.7373    0.4347  -18.0543 C   0  0  0  0  0  0  0  0  0  0  0  0
   -4.3052    0.5870  -19.4827 C   0  0  0  0  0  0  0  0  0  0  0  0
   -3.3658    1.6911  -19.8683 C   0  0  0  0  0  0  0  0  0  0  0  0
   -2.9337    1.8434  -21.2967 C   0  0  0  0  0  0  0  0  0  0  0  0
   -3.4411    0.8918  -22.3392 C   0  0  0  0  0  0  0  0  0  0  0  0
   -4.3805   -0.2122  -21.9535 C   0  0  0  0  0  0  0  0  0  0  0  0
   -4.8126   -0.3645  -20.5253 C   0  0  0  0  0  0  0  0  0  0  0  0
  -11.2785   -2.0575  -23.6861 C   0  0  0  0  0  0  0  0  0  0  0  0
  -11.1324   -0.5660  -23.7481 C   0  0  0  0  0  0  0  0  0  0  0  0
  -10.0302    0.1841  -24.4356 N   0  0  0  0  0  0  0  0  0  0  0  0
  -10.2794    1.6510  -24.2459 C   0  0  0  0  0  0  0  0  0  0  0  0
  -11.5356    1.8076  -23.4412 C   0  0  0  0  0  0  0  0  0  0  0  0
  -12.0628    0.4374  -23.1336 O   0  0  0  0  0  0  0  0  0  0  0  0
  2  1  1  0  0  0
  2  3  1  0  0  0
  3  4  1  0  0  0
  4 19  1  0  0  0
 19 20  2  0  0  0
 20 21  1  0  0  0
 21 22  2  0  0  0
 22 23  1  0  0  0
 23 24  2  0  0  0
 24 25  1  0  0  0
 25 26  2  0  0  0
 26 27  1  0  0  0
 27 28  2  0  0  0
  4  5  1  0  0  0
  5  6  2  0  0  0
  5  7  1  0  0  0
  7  8  1  0  0  0
  8  9  1  0  0  0
  9 29  1  0  0  0
 29 30  1  0  0  0
 30 31  2  0  0  0
 31 32  1  0  0  0
 32 33  2  0  0  0
 33 34  1  0  0  0
  9 10  1  0  0  0
 10 11  2  0  0  0
 10 12  1  0  0  0
 12 13  2  0  0  0
 13 14  1  0  0  0
 14 15  2  0  0  0
 15 16  1  0  0  0
 15 17  1  0  0  0
 17 18  2  0  0  0
  7  2  1  0  0  0
 34 30  1  0  0  0
 18 12  1  0  0  0
 28 19  1  0  0  0
 18  7  1  0  0  0
 28 23  1  0  0  0
M  END
> <minimizedAffinity>
-8.85723

> <CNNscore>
0.3222693503

> <CNNaffinity>
6.1174116135

> <CNN_VS>
1.9714542627

> <CNNaffinity_variance>
0.1743553281

$$$$



 34 39  0  0  0  0  0  0  0  0999 V2000
   -6.6054    2.1221  -22.0924 C   0  0  0  0  0  0  0  0  0  0  0  0
   -7.8999    1.6511  -22.6862 C   0  0  0  0  0  0  0  0  0  0  0  0
   -8.8039    2.7942  -23.0416 C   0  0  0  0  0  0  0  0  0  0  0  0
  -10.0636    2.2251  -23.6240 N   0  0  0  0  0  0  0  0  0  0  0  0
   -9.9382    0.7303  -23.6285 C   0  0  0  0  0  0  0  0  0  0  0  0
  -10.9691   -0.2394  -24.1253 O   0  0  0  0  0  0  0  0  0  0  0  0
   -8.6009    0.3756  -23.0489 C   0  0  0  0  0  0  0  0  0  0  0  0
   -9.4213   -0.8106  -23.4610 C   0  0  0  0  0  0  0  0  0  0  0  0
   -8.8801   -2.1974  -23.2766 N   0  0  0  0  0  0  0  0  0  0  0  0
   -7.5186   -2.3979  -22.6800 C   0  0  0  0  0  0  0  0  0  0  0  0
   -6.9774   -3.7847  -22.4955 O   0  0  0  0  0  0  0  0  0  0  0  0
   -6.6981   -1.2117  -22.2679 C   0  0  0  0  0  0  0  0  0  0  0  0
   -5.3366   -1.4122  -21.6713 C   0  0  0  0  0  0  0  0  0  0  0  0
   -4.5162   -0.2260  -21.2592 C   0  0  0  0  0  0  0  0  0  0  0  0
   -5.0574    1.1608  -21.4437 C   0  0  0  0  0  0  0  0  0  0  0  0
   -4.2369    2.3470  -21.0316 F   0  0  0  0  0  0  0  0  0  0  0  0
   -6.4189    1.3613  -22.0403 C   0  0  0  0  0  0  0  0  0  0  0  0
   -7.2393    0.1751  -22.4523 C   0  0  0  0  0  0  0  0  0  0  0  0
  -11.2419    3.0125  -24.1155 C   0  0  0  0  0  0  0  0  0  0  0  0
  -12.5146    3.0320  -23.3220 C   0  0  0  0  0  0  0  0  0  0  0  0
  -13.6929    3.8194  -23.8136 N   0  0  0  0  0  0  0  0  0  0  0  0
  -13.5985    4.5872  -25.0987 C   0  0  0  0  0  0  0  0  0  0  0  0
  -12.3257    4.5676  -25.8922 C   0  0  0  0  0  0  0  0  0  0  0  0
  -12.2313    5.3355  -27.1774 C   0  0  0  0  0  0  0  0  0  0  0  0
  -10.9585    5.3159  -27.9709 C   0  0  0  0  0  0  0  0  0  0  0  0
   -9.7802    4.5285  -27.4793 C   0  0  0  0  0  0  0  0  0  0  0  0
   -9.8747    3.7607  -26.1942 C   0  0  0  0  0  0  0  0  0  0  0  0
  -11.1474    3.7803  -25.4007 C   0  0  0  0  0  0  0  0  0  0  0  0
   -9.7006   -3.3836  -23.6887 C   0  0  0  0  0  0  0  0  0  0  0  0
   -9.4806   -4.0182  -25.0299 C   0  0  0  0  0  0  0  0  0  0  0  0
   -8.9062   -5.3817  -25.2765 N   0  0  0  0  0  0  0  0  0  0  0  0
   -8.8669   -5.6070  -26.7590 C   0  0  0  0  0  0  0  0  0  0  0  0
   -9.4171   -4.3826  -27.4286 C   0  0  0  0  0  0  0  0  0  0  0  0
   -9.7963   -3.4007  -26.3599 O   0  0  0  0  0  0  0  0  0  0  0  0
  2  1  1  0  0  0
  2  3  1  0  0  0
  3  4  1  0  0  0
  4 19  1  0  0  0
 19 20  2  0  0  0
 20 21  1  0  0  0
 21 22  2  0  0  0
 22 23  1  0  0  0
 23 24  2  0  0  0
 24 25  1  0  0  0
 25 26  2  0  0  0
 26 27  1  0  0  0
 27 28  2  0  0  0
  4  5  1  0  0  0
  5  6  2  0  0  0
  5  7  1  0  0  0
  7  8  1  0  0  0
  8  9  1  0  0  0
  9 29  1  0  0  0
 29 30  1  0  0  0
 30 31  2  0  0  0
 31 32  1  0  0  0
 32 33  2  0  0  0
 33 34  1  0  0  0
  9 10  1  0  0  0
 10 11  2  0  0  0
 10 12  1  0  0  0
 12 13  2  0  0  0
 13 14  1  0  0  0
 14 15  2  0  0  0
 15 16  1  0  0  0
 15 17  1  0  0  0
 17 18  2  0  0  0
  7  2  1  0  0  0
 34 30  1  0  0  0
 18 12  1  0  0  0
 28 19  1  0  0  0
 18  7  1  0  0  0
 28 23  1  0  0  0
M  END
> <minimizedAffinity>
-7.67504

> <CNNscore>
0.3187097907

> <CNNaffinity>
6.0478529930

> <CNN_VS>
1.9275099039

> <CNNaffinity_variance>
0.2710273862

$$$$



 34 39  0  0  0  0  0  0  0  0999 V2000
   -8.8798   -4.1697  -25.3549 C   0  0  0  0  0  0  0  0  0  0  0  0
   -8.4666   -3.0656  -24.4274 C   0  0  0  0  0  0  0  0  0  0  0  0
   -9.0509   -1.7444  -24.8311 C   0  0  0  0  0  0  0  0  0  0  0  0
   -8.5831   -0.7112  -23.8494 N   0  0  0  0  0  0  0  0  0  0  0  0
   -7.7097   -1.3940  -22.8389 C   0  0  0  0  0  0  0  0  0  0  0  0
   -7.0280   -0.7369  -21.6754 O   0  0  0  0  0  0  0  0  0  0  0  0
   -7.6377   -2.8490  -23.1961 C   0  0  0  0  0  0  0  0  0  0  0  0
   -6.8494   -2.4811  -21.9742 C   0  0  0  0  0  0  0  0  0  0  0  0
   -6.0830   -3.5346  -21.2307 N   0  0  0  0  0  0  0  0  0  0  0  0
   -6.1049   -4.9560  -21.7091 C   0  0  0  0  0  0  0  0  0  0  0  0
   -5.3386   -6.0096  -20.9656 O   0  0  0  0  0  0  0  0  0  0  0  0
   -6.8932   -5.3240  -22.9311 C   0  0  0  0  0  0  0  0  0  0  0  0
   -6.9151   -6.7455  -23.4096 C   0  0  0  0  0  0  0  0  0  0  0  0
   -7.7034   -7.1134  -24.6315 C   0  0  0  0  0  0  0  0  0  0  0  0
   -8.4698   -6.0599  -25.3750 C   0  0  0  0  0  0  0  0  0  0  0  0
   -9.2581   -6.4279  -26.5970 F   0  0  0  0  0  0  0  0  0  0  0  0
   -8.4479   -4.6385  -24.8966 C   0  0  0  0  0  0  0  0  0  0  0  0
   -7.6596   -4.2705  -23.6746 C   0  0  0  0  0  0  0  0  0  0  0  0
   -8.9282    0.7483  -23.8738 C   0  0  0  0  0  0  0  0  0  0  0  0
   -7.8397    1.7745  -23.9833 C   0  0  0  0  0  0  0  0  0  0  0  0
   -8.1848    3.2341  -24.0078 N   0  0  0  0  0  0  0  0  0  0  0  0
   -9.6183    3.6674  -23.9226 C   0  0  0  0  0  0  0  0  0  0  0  0
  -10.7068    2.6411  -23.8131 C   0  0  0  0  0  0  0  0  0  0  0  0
  -12.1404    3.0744  -23.7279 C   0  0  0  0  0  0  0  0  0  0  0  0
  -13.2288    2.0481  -23.6184 C   0  0  0  0  0  0  0  0  0  0  0  0
  -12.8837    0.5886  -23.5940 C   0  0  0  0  0  0  0  0  0  0  0  0
  -11.4502    0.1553  -23.6791 C   0  0  0  0  0  0  0  0  0  0  0  0
  -10.3617    1.1815  -23.7887 C   0  0  0  0  0  0  0  0  0  0  0  0
   -5.2947   -3.1666  -20.0087 C   0  0  0  0  0  0  0  0  0  0  0  0
   -5.1730   -1.7286  -19.5996 C   0  0  0  0  0  0  0  0  0  0  0  0
   -5.7814   -1.1048  -18.3786 N   0  0  0  0  0  0  0  0  0  0  0  0
   -5.4059    0.3474  -18.3640 C   0  0  0  0  0  0  0  0  0  0  0  0
   -4.5655    0.6211  -19.5760 C   0  0  0  0  0  0  0  0  0  0  0  0
   -4.4216   -0.6620  -20.3396 O   0  0  0  0  0  0  0  0  0  0  0  0
  2  1  1  0  0  0
  2  3  1  0  0  0
  3  4  1  0  0  0
  4 19  1  0  0  0
 19 20  2  0  0  0
 20 21  1  0  0  0
 21 22  2  0  0  0
 22 23  1  0  0  0
 23 24  2  0  0  0
 24 25  1  0  0  0
 25 26  2  0  0  0
 26 27  1  0  0  0
 27 28  2  0  0  0
  4  5  1  0  0  0
  5  6  2  0  0  0
  5  7  1  0  0  0
  7  8  1  0  0  0
  8  9  1  0  0  0
  9 29  1  0  0  0
 29 30  1  0  0  0
 30 31  2  0  0  0
 31 32  1  0  0  0
 32 33  2  0  0  0
 33 34  1  0  0  0
  9 10  1  0  0  0
 10 11  2  0  0  0
 10 12  1  0  0  0
 12 13  2  0  0  0
 13 14  1  0  0  0
 14 15  2  0  0  0
 15 16  1  0  0  0
 15 17  1  0  0  0
 17 18  2  0  0  0
  7  2  1  0  0  0
 34 30  1  0  0  0
 18 12  1  0  0  0
 28 19  1  0  0  0
 18  7  1  0  0  0
 28 23  1  0  0  0
M  END
> <minimizedAffinity>
-8.67051

> <CNNscore>
0.3033572137

> <CNNaffinity>
6.1706480980

> <CNN_VS>
1.8719105721

> <CNNaffinity_variance>
0.2412979901

$$$$



 34 39  0  0  0  0  0  0  0  0999 V2000
   -6.1790    4.3274  -23.5092 C   0  0  0  0  0  0  0  0  0  0  0  0
   -6.9405    3.1333  -23.0148 C   0  0  0  0  0  0  0  0  0  0  0  0
   -8.3458    3.1068  -23.5387 C   0  0  0  0  0  0  0  0  0  0  0  0
   -9.0212    1.8840  -22.9922 N   0  0  0  0  0  0  0  0  0  0  0  0
   -8.0332    1.1549  -22.1306 C   0  0  0  0  0  0  0  0  0  0  0  0
   -8.2868   -0.1222  -21.3857 O   0  0  0  0  0  0  0  0  0  0  0  0
   -6.7473    1.9270  -22.1445 C   0  0  0  0  0  0  0  0  0  0  0  0
   -6.7031    0.6834  -21.3071 C   0  0  0  0  0  0  0  0  0  0  0  0
   -5.4449    0.3140  -20.5787 N   0  0  0  0  0  0  0  0  0  0  0  0
   -4.2310    1.1882  -20.6877 C   0  0  0  0  0  0  0  0  0  0  0  0
   -2.9728    0.8189  -19.9594 O   0  0  0  0  0  0  0  0  0  0  0  0
   -4.2751    2.4320  -21.5252 C   0  0  0  0  0  0  0  0  0  0  0  0
   -3.0612    3.3062  -21.6343 C   0  0  0  0  0  0  0  0  0  0  0  0
   -3.1054    4.5498  -22.4718 C   0  0  0  0  0  0  0  0  0  0  0  0
   -4.3636    4.9192  -23.2002 C   0  0  0  0  0  0  0  0  0  0  0  0
   -4.4078    6.1629  -24.0377 F   0  0  0  0  0  0  0  0  0  0  0  0
   -5.5775    4.0449  -23.0911 C   0  0  0  0  0  0  0  0  0  0  0  0
   -5.5333    2.8013  -22.2536 C   0  0  0  0  0  0  0  0  0  0  0  0
  -10.4360    1.4641  -23.2602 C   0  0  0  0  0  0  0  0  0  0  0  0
  -10.7849    0.0071  -23.3328 C   0  0  0  0  0  0  0  0  0  0  0  0
  -12.1998   -0.4128  -23.6008 N   0  0  0  0  0  0  0  0  0  0  0  0
  -13.2657    0.6243  -23.7963 C   0  0  0  0  0  0  0  0  0  0  0  0
  -12.9167    2.0813  -23.7237 C   0  0  0  0  0  0  0  0  0  0  0  0
  -13.9827    3.1185  -23.9193 C   0  0  0  0  0  0  0  0  0  0  0  0
  -13.6336    4.5755  -23.8467 C   0  0  0  0  0  0  0  0  0  0  0  0
  -12.2188    4.9954  -23.5787 C   0  0  0  0  0  0  0  0  0  0  0  0
  -11.1529    3.9582  -23.3832 C   0  0  0  0  0  0  0  0  0  0  0  0
  -11.5019    2.5013  -23.4557 C   0  0  0  0  0  0  0  0  0  0  0  0
   -5.4007   -0.9297  -19.7412 C   0  0  0  0  0  0  0  0  0  0  0  0
   -5.5330   -2.2757  -20.3897 C   0  0  0  0  0  0  0  0  0  0  0  0
   -6.0848   -2.5445  -21.7584 N   0  0  0  0  0  0  0  0  0  0  0  0
   -6.0296   -4.0242  -21.9981 C   0  0  0  0  0  0  0  0  0  0  0  0
   -5.4437   -4.6700  -20.7775 C   0  0  0  0  0  0  0  0  0  0  0  0
   -5.1368   -3.5893  -19.7835 O   0  0  0  0  0  0  0  0  0  0  0  0
  2  1  1  0  0  0
  2  3  1  0  0  0
  3  4  1  0  0  0
  4 19  1  0  0  0
 19 20  2  0  0  0
 20 21  1  0  0  0
 21 22  2  0  0  0
 22 23  1  0  0  0
 23 24  2  0  0  0
 24 25  1  0  0  0
 25 26  2  0  0  0
 26 27  1  0  0  0
 27 28  2  0  0  0
  4  5  1  0  0  0
  5  6  2  0  0  0
  5  7  1  0  0  0
  7  8  1  0  0  0
  8  9  1  0  0  0
  9 29  1  0  0  0
 29 30  1  0  0  0
 30 31  2  0  0  0
 31 32  1  0  0  0
 32 33  2  0  0  0
 33 34  1  0  0  0
  9 10  1  0  0  0
 10 11  2  0  0  0
 10 12  1  0  0  0
 12 13  2  0  0  0
 13 14  1  0  0  0
 14 15  2  0  0  0
 15 16  1  0  0  0
 15 17  1  0  0  0
 17 18  2  0  0  0
  7  2  1  0  0  0
 34 30  1  0  0  0
 18 12  1  0  0  0
 28 19  1  0  0  0
 18  7  1  0  0  0
 28 23  1  0  0  0
M  END
> <minimizedAffinity>
-8.11408

> <CNNscore>
0.2583862841

> <CNNaffinity>
5.7736730576

> <CNN_VS>
1.4918379784

> <CNNaffinity_variance>
0.2496649325

$$$$



 34 39  0  0  0  0  0  0  0  0999 V2000
   -6.2700    4.2965  -23.5711 C   0  0  0  0  0  0  0  0  0  0  0  0
   -6.9411    3.0793  -23.0069 C   0  0  0  0  0  0  0  0  0  0  0  0
   -8.3438    2.9245  -23.5154 C   0  0  0  0  0  0  0  0  0  0  0  0
   -8.9266    1.6877  -22.8985 N   0  0  0  0  0  0  0  0  0  0  0  0
   -7.8841    1.0782  -22.0087 C   0  0  0  0  0  0  0  0  0  0  0  0
   -8.0413   -0.1719  -21.1948 O   0  0  0  0  0  0  0  0  0  0  0  0
   -6.6570    1.9382  -22.0757 C   0  0  0  0  0  0  0  0  0  0  0  0
   -6.5190    0.7476  -21.1738 C   0  0  0  0  0  0  0  0  0  0  0  0
   -5.2336    0.5086  -20.4387 N   0  0  0  0  0  0  0  0  0  0  0  0
   -4.0861    1.4601  -20.6054 C   0  0  0  0  0  0  0  0  0  0  0  0
   -2.8006    1.2210  -19.8703 O   0  0  0  0  0  0  0  0  0  0  0  0
   -4.2240    2.6508  -21.5073 C   0  0  0  0  0  0  0  0  0  0  0  0
   -3.0766    3.6023  -21.6740 C   0  0  0  0  0  0  0  0  0  0  0  0
   -3.2145    4.7929  -22.5759 C   0  0  0  0  0  0  0  0  0  0  0  0
   -4.5000    5.0320  -23.3110 C   0  0  0  0  0  0  0  0  0  0  0  0
   -4.6380    6.2227  -24.2129 F   0  0  0  0  0  0  0  0  0  0  0  0
   -5.6475    4.0804  -23.1443 C   0  0  0  0  0  0  0  0  0  0  0  0
   -5.5095    2.8899  -22.2425 C   0  0  0  0  0  0  0  0  0  0  0  0
  -10.3092    1.1542  -23.1306 C   0  0  0  0  0  0  0  0  0  0  0  0
  -11.5000    2.0434  -22.9282 C   0  0  0  0  0  0  0  0  0  0  0  0
  -12.8825    1.5098  -23.1602 N   0  0  0  0  0  0  0  0  0  0  0  0
  -13.0741    0.0870  -23.5947 C   0  0  0  0  0  0  0  0  0  0  0  0
  -11.8832   -0.8023  -23.7971 C   0  0  0  0  0  0  0  0  0  0  0  0
  -12.0749   -2.2252  -24.2316 C   0  0  0  0  0  0  0  0  0  0  0  0
  -10.8839   -3.1144  -24.4340 C   0  0  0  0  0  0  0  0  0  0  0  0
   -9.5014   -2.5807  -24.2020 C   0  0  0  0  0  0  0  0  0  0  0  0
   -9.3098   -1.1579  -23.7675 C   0  0  0  0  0  0  0  0  0  0  0  0
  -10.5007   -0.2687  -23.5651 C   0  0  0  0  0  0  0  0  0  0  0  0
   -5.0956   -0.6821  -19.5368 C   0  0  0  0  0  0  0  0  0  0  0  0
   -5.3000   -2.0642  -20.0827 C   0  0  0  0  0  0  0  0  0  0  0  0
   -5.7076   -2.4068  -21.4850 N   0  0  0  0  0  0  0  0  0  0  0  0
   -5.7923   -3.9007  -21.5912 C   0  0  0  0  0  0  0  0  0  0  0  0
   -5.4370   -4.4813  -20.2545 C   0  0  0  0  0  0  0  0  0  0  0  0
   -5.1328   -3.3462  -19.3222 O   0  0  0  0  0  0  0  0  0  0  0  0
  2  1  1  0  0  0
  2  3  1  0  0  0
  3  4  1  0  0  0
  4 19  1  0  0  0
 19 20  2  0  0  0
 20 21  1  0  0  0
 21 22  2  0  0  0
 22 23  1  0  0  0
 23 24  2  0  0  0
 24 25  1  0  0  0
 25 26  2  0  0  0
 26 27  1  0  0  0
 27 28  2  0  0  0
  4  5  1  0  0  0
  5  6  2  0  0  0
  5  7  1  0  0  0
  7  8  1  0  0  0
  8  9  1  0  0  0
  9 29  1  0  0  0
 29 30  1  0  0  0
 30 31  2  0  0  0
 31 32  1  0  0  0
 32 33  2  0  0  0
 33 34  1  0  0  0
  9 10  1  0  0  0
 10 11  2  0  0  0
 10 12  1  0  0  0
 12 13  2  0  0  0
 13 14  1  0  0  0
 14 15  2  0  0  0
 15 16  1  0  0  0
 15 17  1  0  0  0
 17 18  2  0  0  0
  7  2  1  0  0  0
 34 30  1  0  0  0
 18 12  1  0  0  0
 28 19  1  0  0  0
 18  7  1  0  0  0
 28 23  1  0  0  0
M  END
> <minimizedAffinity>
-7.44593

> <CNNscore>
0.2306439281

> <CNNaffinity>
6.0127010345

> <CNN_VS>
1.3867930174

> <CNNaffinity_variance>
0.1188165992

$$$$



 34 39  0  0  0  0  0  0  0  0999 V2000
  -10.3640   -4.3796  -25.5337 C   0  0  0  0  0  0  0  0  0  0  0  0
   -9.8383   -3.2811  -24.6578 C   0  0  0  0  0  0  0  0  0  0  0  0
  -10.6698   -2.0366  -24.7574 C   0  0  0  0  0  0  0  0  0  0  0  0
  -10.0681   -1.0034  -23.8515 N   0  0  0  0  0  0  0  0  0  0  0  0
   -8.8648   -1.6094  -23.1921 C   0  0  0  0  0  0  0  0  0  0  0  0
   -7.9620   -0.9274  -22.2073 O   0  0  0  0  0  0  0  0  0  0  0  0
   -8.7228   -3.0171  -23.6905 C   0  0  0  0  0  0  0  0  0  0  0  0
   -7.6668   -2.6088  -22.7065 C   0  0  0  0  0  0  0  0  0  0  0  0
   -6.5970   -3.5816  -22.3075 N   0  0  0  0  0  0  0  0  0  0  0  0
   -6.5832   -4.9628  -22.8925 C   0  0  0  0  0  0  0  0  0  0  0  0
   -5.5135   -5.9356  -22.4935 O   0  0  0  0  0  0  0  0  0  0  0  0
   -7.6392   -5.3711  -23.8765 C   0  0  0  0  0  0  0  0  0  0  0  0
   -7.6254   -6.7522  -24.4615 C   0  0  0  0  0  0  0  0  0  0  0  0
   -8.6813   -7.1605  -25.4455 C   0  0  0  0  0  0  0  0  0  0  0  0
   -9.7511   -6.1877  -25.8445 C   0  0  0  0  0  0  0  0  0  0  0  0
  -10.8071   -6.5960  -26.8285 F   0  0  0  0  0  0  0  0  0  0  0  0
   -9.7649   -4.8066  -25.2595 C   0  0  0  0  0  0  0  0  0  0  0  0
   -8.7090   -4.3983  -24.2755 C   0  0  0  0  0  0  0  0  0  0  0  0
  -10.5799    0.3909  -23.6418 C   0  0  0  0  0  0  0  0  0  0  0  0
  -11.8214    0.6202  -22.8320 C   0  0  0  0  0  0  0  0  0  0  0  0
  -12.3332    2.0145  -22.6223 N   0  0  0  0  0  0  0  0  0  0  0  0
  -11.6034    3.1795  -23.2225 C   0  0  0  0  0  0  0  0  0  0  0  0
  -10.3618    2.9501  -24.0324 C   0  0  0  0  0  0  0  0  0  0  0  0
   -9.6320    4.1151  -24.6326 C   0  0  0  0  0  0  0  0  0  0  0  0
   -8.3904    3.8857  -25.4424 C   0  0  0  0  0  0  0  0  0  0  0  0
   -7.8787    2.4914  -25.6521 C   0  0  0  0  0  0  0  0  0  0  0  0
   -8.6085    1.3264  -25.0519 C   0  0  0  0  0  0  0  0  0  0  0  0
   -9.8500    1.5558  -24.2421 C   0  0  0  0  0  0  0  0  0  0  0  0
   -5.5411   -3.1733  -21.3235 C   0  0  0  0  0  0  0  0  0  0  0  0
   -5.7265   -1.9373  -20.4941 C   0  0  0  0  0  0  0  0  0  0  0  0
   -5.0091   -0.6335  -20.6820 N   0  0  0  0  0  0  0  0  0  0  0  0
   -5.5011    0.3214  -19.6352 C   0  0  0  0  0  0  0  0  0  0  0  0
   -6.5227   -0.3922  -18.8002 C   0  0  0  0  0  0  0  0  0  0  0  0
   -6.6620   -1.7881  -19.3310 O   0  0  0  0  0  0  0  0  0  0  0  0
  2  1  1  0  0  0
  2  3  1  0  0  0
  3  4  1  0  0  0
  4 19  1  0  0  0
 19 20  2  0  0  0
 20 21  1  0  0  0
 21 22  2  0  0  0
 22 23  1  0  0  0
 23 24  2  0  0  0
 24 25  1  0  0  0
 25 26  2  0  0  0
 26 27  1  0  0  0
 27 28  2  0  0  0
  4  5  1  0  0  0
  5  6  2  0  0  0
  5  7  1  0  0  0
  7  8  1  0  0  0
  8  9  1  0  0  0
  9 29  1  0  0  0
 29 30  1  0  0  0
 30 31  2  0  0  0
 31 32  1  0  0  0
 32 33  2  0  0  0
 33 34  1  0  0  0
  9 10  1  0  0  0
 10 11  2  0  0  0
 10 12  1  0  0  0
 12 13  2  0  0  0
 13 14  1  0  0  0
 14 15  2  0  0  0
 15 16  1  0  0  0
 15 17  1  0  0  0
 17 18  2  0  0  0
  7  2  1  0  0  0
 34 30  1  0  0  0
 18 12  1  0  0  0
 28 19  1  0  0  0
 18  7  1  0  0  0
 28 23  1  0  0  0
M  END
> <minimizedAffinity>
-7.49137

> <CNNscore>
0.2189972699

> <CNNaffinity>
6.1859312057

> <CNN_VS>
1.3547019958

> <CNNaffinity_variance>
0.1928919554

$$$$
