


 37 42  0  0  0  0  0  0  0  0999 V2000
   -9.4810   -2.5859  -23.7622 C   0  0  0  0  0  0  0  0  0  0  0  0
   -8.2486   -2.7921  -22.9322 C   0  0  0  0  0  0  0  0  0  0  0  0
   -8.0012   -1.6441  -21.9990 C   0  0  0  0  0  0  0  0  0  0  0  0
   -6.7557   -1.9420  -21.2178 N   0  0  0  0  0  0  0  0  0  0  0  0
   -6.2335   -3.2741  -21.6683 C   0  0  0  0  0  0  0  0  0  0  0  0
   -5.0044   -3.9603  -21.1502 O   0  0  0  0  0  0  0  0  0  0  0  0
   -7.1562   -3.7995  -22.7279 C   0  0  0  0  0  0  0  0  0  0  0  0
   -6.0054   -4.7093  -22.4151 C   0  0  0  0  0  0  0  0  0  0  0  0
   -5.8610   -6.0132  -23.1426 N   0  0  0  0  0  0  0  0  0  0  0  0
   -6.8673   -6.4071  -24.1828 C   0  0  0  0  0  0  0  0  0  0  0  0
   -6.7229   -7.7109  -24.9102 O   0  0  0  0  0  0  0  0  0  0  0  0
   -8.0182   -5.4972  -24.4956 C   0  0  0  0  0  0  0  0  0  0  0  0
   -9.0245   -5.8912  -25.5358 C   0  0  0  0  0  0  0  0  0  0  0  0
  -10.1752   -4.9813  -25.8486 C   0  0  0  0  0  0  0  0  0  0  0  0
  -10.3196   -3.6775  -25.1211 C   0  0  0  0  0  0  0  0  0  0  0  0
  -11.4705   -2.7676  -25.4339 F   0  0  0  0  0  0  0  0  0  0  0  0
   -9.3133   -3.2835  -24.0809 C   0  0  0  0  0  0  0  0  0  0  0  0
   -8.1626   -4.1934  -23.7681 C   0  0  0  0  0  0  0  0  0  0  0  0
   -6.1405   -1.0623  -20.1701 C   0  0  0  0  0  0  0  0  0  0  0  0
   -6.7061   -1.0423  -18.7811 C   0  0  0  0  0  0  0  0  0  0  0  0
   -6.0909   -0.1626  -17.7334 N   0  0  0  0  0  0  0  0  0  0  0  0
   -4.9101    0.6971  -18.0749 C   0  0  0  0  0  0  0  0  0  0  0  0
   -4.3445    0.6770  -19.4640 C   0  0  0  0  0  0  0  0  0  0  0  0
   -3.1636    1.5367  -19.8054 C   0  0  0  0  0  0  0  0  0  0  0  0
   -2.5980    1.5166  -21.1946 C   0  0  0  0  0  0  0  0  0  0  0  0
   -3.2132    0.6369  -22.2422 C   0  0  0  0  0  0  0  0  0  0  0  0
   -4.3941   -0.2227  -21.9007 C   0  0  0  0  0  0  0  0  0  0  0  0
   -4.9597   -0.2027  -20.5117 C   0  0  0  0  0  0  0  0  0  0  0  0
   -4.7102   -6.9231  -22.8298 C   0  0  0  0  0  0  0  0  0  0  0  0
   -3.5921   -7.0845  -23.8165 C   0  0  0  0  0  0  0  0  0  0  0  0
   -3.5111   -6.1828  -25.0124 O   0  0  0  0  0  0  0  0  0  0  0  0
   -2.5549   -8.1478  -23.6073 N   0  0  0  0  0  0  0  0  0  0  0  0
   -2.6081   -8.7397  -22.8224 H   0  0  0  0  0  0  0  0  0  0  0  0
   -1.4368   -8.3093  -24.5941 C   0  0  0  0  0  0  0  0  0  0  0  0
   -0.1424   -7.5803  -24.3868 C   0  0  0  0  0  0  0  0  0  0  0  0
    0.9135   -6.6399  -24.8875 C   0  0  0  0  0  0  0  0  0  0  0  0
    1.0437   -7.2579  -23.5270 C   0  0  0  0  0  0  0  0  0  0  0  0
  2  1  1  0  0  0
  2  3  1  0  0  0
  3  4  1  0  0  0
  4 19  1  0  0  0
 19 20  2  0  0  0
 20 21  1  0  0  0
 21 22  2  0  0  0
 22 23  1  0  0  0
 23 24  2  0  0  0
 24 25  1  0  0  0
 25 26  2  0  0  0
 26 27  1  0  0  0
 27 28  2  0  0  0
  4  5  1  0  0  0
  5  6  2  0  0  0
  5  7  1  0  0  0
  7  8  1  0  0  0
  8  9  1  0  0  0
  9 29  1  0  0  0
 29 30  1  0  0  0
 30 31  2  0  0  0
 30 32  1  0  0  0
 32 34  1  0  0  0
 34 35  1  0  0  0
 35 36  1  0  0  0
 36 37  1  0  0  0
  9 10  1  0  0  0
 10 11  2  0  0  0
 10 12  1  0  0  0
 12 13  2  0  0  0
 13 14  1  0  0  0
 14 15  2  0  0  0
 15 16  1  0  0  0
 15 17  1  0  0  0
 17 18  2  0  0  0
  7  2  1  0  0  0
 37 35  1  0  0  0
 18 12  1  0  0  0
 28 19  1  0  0  0
 18  7  1  0  0  0
 28 23  1  0  0  0
 32 33  1  0  0  0
M  END
> <minimizedAffinity>
-7.76647

> <CNNscore>
0.6923085451

> <CNNaffinity>
6.8739066124

> <CNN_VS>
4.7588644028

> <CNNaffinity_variance>
0.2066657096

$$$$



 37 42  0  0  0  0  0  0  0  0999 V2000
   -5.8778   -5.4803  -23.1189 C   0  0  0  0  0  0  0  0  0  0  0  0
   -6.4620   -4.2046  -22.5884 C   0  0  0  0  0  0  0  0  0  0  0  0
   -5.5821   -3.5722  -21.5512 C   0  0  0  0  0  0  0  0  0  0  0  0
   -6.2475   -2.3113  -21.0851 N   0  0  0  0  0  0  0  0  0  0  0  0
   -7.5387   -2.1644  -21.8342 C   0  0  0  0  0  0  0  0  0  0  0  0
   -8.5242   -1.0440  -21.6811 O   0  0  0  0  0  0  0  0  0  0  0  0
   -7.6713   -3.3345  -22.7633 C   0  0  0  0  0  0  0  0  0  0  0  0
   -8.8183   -2.3701  -22.8293 C   0  0  0  0  0  0  0  0  0  0  0  0
   -9.9597   -2.6252  -23.7684 N   0  0  0  0  0  0  0  0  0  0  0  0
   -9.9542   -3.8448  -24.6416 C   0  0  0  0  0  0  0  0  0  0  0  0
  -11.0956   -4.1000  -25.5808 O   0  0  0  0  0  0  0  0  0  0  0  0
   -8.8072   -4.8093  -24.5758 C   0  0  0  0  0  0  0  0  0  0  0  0
   -8.8016   -6.0288  -25.4490 C   0  0  0  0  0  0  0  0  0  0  0  0
   -7.6547   -6.9932  -25.3831 C   0  0  0  0  0  0  0  0  0  0  0  0
   -6.5132   -6.7381  -24.4439 C   0  0  0  0  0  0  0  0  0  0  0  0
   -5.3662   -7.7025  -24.3780 F   0  0  0  0  0  0  0  0  0  0  0  0
   -6.5188   -5.5185  -23.5707 C   0  0  0  0  0  0  0  0  0  0  0  0
   -7.6657   -4.5541  -23.6366 C   0  0  0  0  0  0  0  0  0  0  0  0
   -5.7152   -1.3637  -20.0513 C   0  0  0  0  0  0  0  0  0  0  0  0
   -6.1524   -1.4900  -18.6221 C   0  0  0  0  0  0  0  0  0  0  0  0
   -5.6201   -0.5424  -17.5884 N   0  0  0  0  0  0  0  0  0  0  0  0
   -4.6505    0.5316  -17.9839 C   0  0  0  0  0  0  0  0  0  0  0  0
   -4.2132    0.6579  -19.4132 C   0  0  0  0  0  0  0  0  0  0  0  0
   -3.2436    1.7319  -19.8087 C   0  0  0  0  0  0  0  0  0  0  0  0
   -2.8064    1.8582  -21.2380 C   0  0  0  0  0  0  0  0  0  0  0  0
   -3.3387    0.9106  -22.2717 C   0  0  0  0  0  0  0  0  0  0  0  0
   -4.3083   -0.1634  -21.8761 C   0  0  0  0  0  0  0  0  0  0  0  0
   -4.7456   -0.2897  -20.4469 C   0  0  0  0  0  0  0  0  0  0  0  0
  -11.1067   -1.6608  -23.8343 C   0  0  0  0  0  0  0  0  0  0  0  0
  -10.8431   -0.1887  -23.9503 C   0  0  0  0  0  0  0  0  0  0  0  0
   -9.7067    0.3054  -24.7956 O   0  0  0  0  0  0  0  0  0  0  0  0
  -11.7159    0.7892  -23.2211 N   0  0  0  0  0  0  0  0  0  0  0  0
  -12.4617    0.4649  -22.6664 H   0  0  0  0  0  0  0  0  0  0  0  0
  -11.4523    2.2614  -23.3371 C   0  0  0  0  0  0  0  0  0  0  0  0
  -12.5993    3.2254  -23.4082 C   0  0  0  0  0  0  0  0  0  0  0  0
  -13.7696    3.7995  -24.1502 C   0  0  0  0  0  0  0  0  0  0  0  0
  -13.4156    4.3210  -22.7891 C   0  0  0  0  0  0  0  0  0  0  0  0
  2  1  1  0  0  0
  2  3  1  0  0  0
  3  4  1  0  0  0
  4 19  1  0  0  0
 19 20  2  0  0  0
 20 21  1  0  0  0
 21 22  2  0  0  0
 22 23  1  0  0  0
 23 24  2  0  0  0
 24 25  1  0  0  0
 25 26  2  0  0  0
 26 27  1  0  0  0
 27 28  2  0  0  0
  4  5  1  0  0  0
  5  6  2  0  0  0
  5  7  1  0  0  0
  7  8  1  0  0  0
  8  9  1  0  0  0
  9 29  1  0  0  0
 29 30  1  0  0  0
 30 31  2  0  0  0
 30 32  1  0  0  0
 32 34  1  0  0  0
 34 35  1  0  0  0
 35 36  1  0  0  0
 36 37  1  0  0  0
  9 10  1  0  0  0
 10 11  2  0  0  0
 10 12  1  0  0  0
 12 13  2  0  0  0
 13 14  1  0  0  0
 14 15  2  0  0  0
 15 16  1  0  0  0
 15 17  1  0  0  0
 17 18  2  0  0  0
  7  2  1  0  0  0
 37 35  1  0  0  0
 18 12  1  0  0  0
 28 19  1  0  0  0
 18  7  1  0  0  0
 28 23  1  0  0  0
 32 33  1  0  0  0
M  END
> <minimizedAffinity>
-8.78557

> <CNNscore>
0.4444987178

> <CNNaffinity>
6.3962163925

> <CNN_VS>
2.8431100845

> <CNNaffinity_variance>
0.2635351121

$$$$



 37 42  0  0  0  0  0  0  0  0999 V2000
   -7.2981   -0.3209  -21.1703 C   0  0  0  0  0  0  0  0  0  0  0  0
   -8.4845   -0.3608  -22.0874 C   0  0  0  0  0  0  0  0  0  0  0  0
   -9.2459    0.9316  -22.0777 C   0  0  0  0  0  0  0  0  0  0  0  0
  -10.4055    0.7935  -23.0190 N   0  0  0  0  0  0  0  0  0  0  0  0
  -10.3608   -0.5842  -23.6105 C   0  0  0  0  0  0  0  0  0  0  0  0
  -11.3327   -1.1493  -24.6035 O   0  0  0  0  0  0  0  0  0  0  0  0
   -9.1735   -1.2976  -23.0348 C   0  0  0  0  0  0  0  0  0  0  0  0
   -9.9659   -2.1191  -24.0080 C   0  0  0  0  0  0  0  0  0  0  0  0
   -9.5421   -3.5228  -24.3241 N   0  0  0  0  0  0  0  0  0  0  0  0
   -8.3260   -4.1051  -23.6670 C   0  0  0  0  0  0  0  0  0  0  0  0
   -7.9022   -5.5089  -23.9830 O   0  0  0  0  0  0  0  0  0  0  0  0
   -7.5335   -3.2836  -22.6936 C   0  0  0  0  0  0  0  0  0  0  0  0
   -6.3174   -3.8659  -22.0364 C   0  0  0  0  0  0  0  0  0  0  0  0
   -5.5251   -3.0444  -21.0631 C   0  0  0  0  0  0  0  0  0  0  0  0
   -5.9488   -1.6407  -20.7471 C   0  0  0  0  0  0  0  0  0  0  0  0
   -5.1564   -0.8192  -19.7737 F   0  0  0  0  0  0  0  0  0  0  0  0
   -7.1650   -1.0584  -21.4042 C   0  0  0  0  0  0  0  0  0  0  0  0
   -7.9573   -1.8799  -22.3775 C   0  0  0  0  0  0  0  0  0  0  0  0
  -11.4300    1.8479  -23.3167 C   0  0  0  0  0  0  0  0  0  0  0  0
  -12.8635    1.6304  -22.9327 C   0  0  0  0  0  0  0  0  0  0  0  0
  -13.8880    2.6849  -23.2303 N   0  0  0  0  0  0  0  0  0  0  0  0
  -13.4788    3.9568  -23.9119 C   0  0  0  0  0  0  0  0  0  0  0  0
  -12.0452    4.1744  -24.2959 C   0  0  0  0  0  0  0  0  0  0  0  0
  -11.6360    5.4465  -24.9775 C   0  0  0  0  0  0  0  0  0  0  0  0
  -10.2024    5.6639  -25.3615 C   0  0  0  0  0  0  0  0  0  0  0  0
   -9.1780    4.6095  -25.0638 C   0  0  0  0  0  0  0  0  0  0  0  0
   -9.5872    3.3375  -24.3822 C   0  0  0  0  0  0  0  0  0  0  0  0
  -11.0207    3.1199  -23.9983 C   0  0  0  0  0  0  0  0  0  0  0  0
  -10.3345   -4.3443  -25.2975 C   0  0  0  0  0  0  0  0  0  0  0  0
   -9.7363   -4.7247  -26.6193 C   0  0  0  0  0  0  0  0  0  0  0  0
   -9.5635   -3.6888  -27.6903 O   0  0  0  0  0  0  0  0  0  0  0  0
   -9.3108   -6.1410  -26.8702 N   0  0  0  0  0  0  0  0  0  0  0  0
   -9.4241   -6.8209  -26.1672 H   0  0  0  0  0  0  0  0  0  0  0  0
   -8.7125   -6.5215  -28.1921 C   0  0  0  0  0  0  0  0  0  0  0  0
   -7.2221   -6.5768  -28.3527 C   0  0  0  0  0  0  0  0  0  0  0  0
   -5.9941   -7.2826  -28.8462 C   0  0  0  0  0  0  0  0  0  0  0  0
   -5.8689   -5.9666  -28.1374 C   0  0  0  0  0  0  0  0  0  0  0  0
  2  1  1  0  0  0
  2  3  1  0  0  0
  3  4  1  0  0  0
  4 19  1  0  0  0
 19 20  2  0  0  0
 20 21  1  0  0  0
 21 22  2  0  0  0
 22 23  1  0  0  0
 23 24  2  0  0  0
 24 25  1  0  0  0
 25 26  2  0  0  0
 26 27  1  0  0  0
 27 28  2  0  0  0
  4  5  1  0  0  0
  5  6  2  0  0  0
  5  7  1  0  0  0
  7  8  1  0  0  0
  8  9  1  0  0  0
  9 29  1  0  0  0
 29 30  1  0  0  0
 30 31  2  0  0  0
 30 32  1  0  0  0
 32 34  1  0  0  0
 34 35  1  0  0  0
 35 36  1  0  0  0
 36 37  1  0  0  0
  9 10  1  0  0  0
 10 11  2  0  0  0
 10 12  1  0  0  0
 12 13  2  0  0  0
 13 14  1  0  0  0
 14 15  2  0  0  0
 15 16  1  0  0  0
 15 17  1  0  0  0
 17 18  2  0  0  0
  7  2  1  0  0  0
 37 35  1  0  0  0
 18 12  1  0  0  0
 28 19  1  0  0  0
 18  7  1  0  0  0
 28 23  1  0  0  0
 32 33  1  0  0  0
M  END
> <minimizedAffinity>
-8.51807

> <CNNscore>
0.4127012193

> <CNNaffinity>
6.3481326103

> <CNN_VS>
2.6198821068

> <CNNaffinity_variance>
0.1707335114

$$$$



 37 42  0  0  0  0  0  0  0  0999 V2000
   -6.2897    4.0227  -23.5382 C   0  0  0  0  0  0  0  0  0  0  0  0
   -6.9796    2.8248  -22.9558 C   0  0  0  0  0  0  0  0  0  0  0  0
   -8.3767    2.6712  -23.4797 C   0  0  0  0  0  0  0  0  0  0  0  0
   -8.9793    1.4540  -22.8430 N   0  0  0  0  0  0  0  0  0  0  0  0
   -7.9546    0.8555  -21.9255 C   0  0  0  0  0  0  0  0  0  0  0  0
   -8.1343   -0.3744  -21.0857 O   0  0  0  0  0  0  0  0  0  0  0  0
   -6.7187    1.7026  -21.9952 C   0  0  0  0  0  0  0  0  0  0  0  0
   -6.6040    0.5316  -21.0649 C   0  0  0  0  0  0  0  0  0  0  0  0
   -5.3308    0.2977  -20.3071 N   0  0  0  0  0  0  0  0  0  0  0  0
   -4.1723    1.2348  -20.4796 C   0  0  0  0  0  0  0  0  0  0  0  0
   -2.8991    1.0009  -19.7219 O   0  0  0  0  0  0  0  0  0  0  0  0
   -4.2870    2.4059  -21.4100 C   0  0  0  0  0  0  0  0  0  0  0  0
   -3.1286    3.3429  -21.5826 C   0  0  0  0  0  0  0  0  0  0  0  0
   -3.2433    4.5139  -22.5129 C   0  0  0  0  0  0  0  0  0  0  0  0
   -4.5165    4.7478  -23.2707 C   0  0  0  0  0  0  0  0  0  0  0  0
   -4.6312    5.9189  -24.2010 F   0  0  0  0  0  0  0  0  0  0  0  0
   -5.6750    3.8108  -23.0981 C   0  0  0  0  0  0  0  0  0  0  0  0
   -5.5602    2.6398  -22.1678 C   0  0  0  0  0  0  0  0  0  0  0  0
  -10.3635    0.9278  -23.0817 C   0  0  0  0  0  0  0  0  0  0  0  0
  -11.5474    1.8367  -22.9327 C   0  0  0  0  0  0  0  0  0  0  0  0
  -12.9316    1.3105  -23.1715 N   0  0  0  0  0  0  0  0  0  0  0  0
  -13.1319   -0.1246  -23.5592 C   0  0  0  0  0  0  0  0  0  0  0  0
  -11.9480   -1.0335  -23.7083 C   0  0  0  0  0  0  0  0  0  0  0  0
  -12.1483   -2.4686  -24.0961 C   0  0  0  0  0  0  0  0  0  0  0  0
  -10.9643   -3.3775  -24.2451 C   0  0  0  0  0  0  0  0  0  0  0  0
   -9.5801   -2.8512  -24.0063 C   0  0  0  0  0  0  0  0  0  0  0  0
   -9.3799   -1.4161  -23.6185 C   0  0  0  0  0  0  0  0  0  0  0  0
  -10.5637   -0.5073  -23.4695 C   0  0  0  0  0  0  0  0  0  0  0  0
   -5.2161   -0.8734  -19.3767 C   0  0  0  0  0  0  0  0  0  0  0  0
   -5.4465   -2.2640  -19.8895 C   0  0  0  0  0  0  0  0  0  0  0  0
   -5.1630   -3.4447  -19.0088 O   0  0  0  0  0  0  0  0  0  0  0  0
   -5.9603   -2.4739  -21.2830 N   0  0  0  0  0  0  0  0  0  0  0  0
   -6.1464   -1.6990  -21.8610 H   0  0  0  0  0  0  0  0  0  0  0  0
   -6.1907   -3.8646  -21.7958 C   0  0  0  0  0  0  0  0  0  0  0  0
   -6.1667   -4.1335  -23.2713 C   0  0  0  0  0  0  0  0  0  0  0  0
   -6.0950   -5.1023  -24.4142 C   0  0  0  0  0  0  0  0  0  0  0  0
   -6.1966   -3.6303  -24.6841 C   0  0  0  0  0  0  0  0  0  0  0  0
  2  1  1  0  0  0
  2  3  1  0  0  0
  3  4  1  0  0  0
  4 19  1  0  0  0
 19 20  2  0  0  0
 20 21  1  0  0  0
 21 22  2  0  0  0
 22 23  1  0  0  0
 23 24  2  0  0  0
 24 25  1  0  0  0
 25 26  2  0  0  0
 26 27  1  0  0  0
 27 28  2  0  0  0
  4  5  1  0  0  0
  5  6  2  0  0  0
  5  7  1  0  0  0
  7  8  1  0  0  0
  8  9  1  0  0  0
  9 29  1  0  0  0
 29 30  1  0  0  0
 30 31  2  0  0  0
 30 32  1  0  0  0
 32 34  1  0  0  0
 34 35  1  0  0  0
 35 36  1  0  0  0
 36 37  1  0  0  0
  9 10  1  0  0  0
 10 11  2  0  0  0
 10 12  1  0  0  0
 12 13  2  0  0  0
 13 14  1  0  0  0
 14 15  2  0  0  0
 15 16  1  0  0  0
 15 17  1  0  0  0
 17 18  2  0  0  0
  7  2  1  0  0  0
 37 35  1  0  0  0
 18 12  1  0  0  0
 28 19  1  0  0  0
 18  7  1  0  0  0
 28 23  1  0  0  0
 32 33  1  0  0  0
M  END
> <minimizedAffinity>
-7.99312

> <CNNscore>
0.3568638861

> <CNNaffinity>
6.4728345871

> <CNN_VS>
2.3099207878

> <CNNaffinity_variance>
0.0371889099

$$$$



 37 42  0  0  0  0  0  0  0  0999 V2000
   -7.8532   -3.3945  -24.6925 C   0  0  0  0  0  0  0  0  0  0  0  0
   -8.0064   -2.2004  -23.7976 C   0  0  0  0  0  0  0  0  0  0  0  0
   -8.8491   -1.1310  -24.4271 C   0  0  0  0  0  0  0  0  0  0  0  0
   -8.9428    0.0134  -23.4619 N   0  0  0  0  0  0  0  0  0  0  0  0
   -8.1580   -0.3487  -22.2359 C   0  0  0  0  0  0  0  0  0  0  0  0
   -7.9827    0.5071  -21.0166 O   0  0  0  0  0  0  0  0  0  0  0  0
   -7.5792   -1.7169  -22.4434 C   0  0  0  0  0  0  0  0  0  0  0  0
   -7.2326   -1.1022  -21.1199 C   0  0  0  0  0  0  0  0  0  0  0  0
   -6.3769   -1.8548  -20.1444 N   0  0  0  0  0  0  0  0  0  0  0  0
   -5.8679   -3.2221  -20.4926 C   0  0  0  0  0  0  0  0  0  0  0  0
   -5.0123   -3.9747  -19.5172 O   0  0  0  0  0  0  0  0  0  0  0  0
   -6.2146   -3.8370  -21.8162 C   0  0  0  0  0  0  0  0  0  0  0  0
   -5.7056   -5.2043  -22.1644 C   0  0  0  0  0  0  0  0  0  0  0  0
   -6.0523   -5.8190  -23.4879 C   0  0  0  0  0  0  0  0  0  0  0  0
   -6.9079   -5.0664  -24.4633 C   0  0  0  0  0  0  0  0  0  0  0  0
   -7.2546   -5.6813  -25.7870 F   0  0  0  0  0  0  0  0  0  0  0  0
   -7.4169   -3.6991  -24.1152 C   0  0  0  0  0  0  0  0  0  0  0  0
   -7.0702   -3.0844  -22.7916 C   0  0  0  0  0  0  0  0  0  0  0  0
   -9.6901    1.2950  -23.6836 C   0  0  0  0  0  0  0  0  0  0  0  0
  -11.1826    1.3278  -23.5375 C   0  0  0  0  0  0  0  0  0  0  0  0
  -11.9299    2.6093  -23.7592 N   0  0  0  0  0  0  0  0  0  0  0  0
  -11.1847    3.8580  -24.1272 C   0  0  0  0  0  0  0  0  0  0  0  0
   -9.6921    3.8252  -24.2734 C   0  0  0  0  0  0  0  0  0  0  0  0
   -8.9469    5.0739  -24.6414 C   0  0  0  0  0  0  0  0  0  0  0  0
   -7.4544    5.0410  -24.7875 C   0  0  0  0  0  0  0  0  0  0  0  0
   -6.7072    3.7595  -24.5657 C   0  0  0  0  0  0  0  0  0  0  0  0
   -7.4524    2.5108  -24.1978 C   0  0  0  0  0  0  0  0  0  0  0  0
   -8.9448    2.5436  -24.0516 C   0  0  0  0  0  0  0  0  0  0  0  0
   -6.0302   -1.2400  -18.8208 C   0  0  0  0  0  0  0  0  0  0  0  0
   -5.2180    0.0200  -18.7688 C   0  0  0  0  0  0  0  0  0  0  0  0
   -5.3254    0.9332  -17.5837 O   0  0  0  0  0  0  0  0  0  0  0  0
   -4.2984    0.3667  -19.9019 N   0  0  0  0  0  0  0  0  0  0  0  0
   -4.2279   -0.2327  -20.6798 H   0  0  0  0  0  0  0  0  0  0  0  0
   -3.4861    1.6267  -19.8500 C   0  0  0  0  0  0  0  0  0  0  0  0
   -2.0897    1.6419  -20.3975 C   0  0  0  0  0  0  0  0  0  0  0  0
   -1.1247    1.3341  -21.5038 C   0  0  0  0  0  0  0  0  0  0  0  0
   -0.6360    1.9762  -20.2394 C   0  0  0  0  0  0  0  0  0  0  0  0
  2  1  1  0  0  0
  2  3  1  0  0  0
  3  4  1  0  0  0
  4 19  1  0  0  0
 19 20  2  0  0  0
 20 21  1  0  0  0
 21 22  2  0  0  0
 22 23  1  0  0  0
 23 24  2  0  0  0
 24 25  1  0  0  0
 25 26  2  0  0  0
 26 27  1  0  0  0
 27 28  2  0  0  0
  4  5  1  0  0  0
  5  6  2  0  0  0
  5  7  1  0  0  0
  7  8  1  0  0  0
  8  9  1  0  0  0
  9 29  1  0  0  0
 29 30  1  0  0  0
 30 31  2  0  0  0
 30 32  1  0  0  0
 32 34  1  0  0  0
 34 35  1  0  0  0
 35 36  1  0  0  0
 36 37  1  0  0  0
  9 10  1  0  0  0
 10 11  2  0  0  0
 10 12  1  0  0  0
 12 13  2  0  0  0
 13 14  1  0  0  0
 14 15  2  0  0  0
 15 16  1  0  0  0
 15 17  1  0  0  0
 17 18  2  0  0  0
  7  2  1  0  0  0
 37 35  1  0  0  0
 18 12  1  0  0  0
 28 19  1  0  0  0
 18  7  1  0  0  0
 28 23  1  0  0  0
 32 33  1  0  0  0
M  END
> <minimizedAffinity>
-8.27662

> <CNNscore>
0.3150374889

> <CNNaffinity>
6.3494138718

> <CNN_VS>
2.0003035069

> <CNNaffinity_variance>
0.0609615520

$$$$



 37 42  0  0  0  0  0  0  0  0999 V2000
   -6.0597    4.1055  -23.5547 C   0  0  0  0  0  0  0  0  0  0  0  0
   -6.8481    2.9442  -23.0255 C   0  0  0  0  0  0  0  0  0  0  0  0
   -8.2209    2.8766  -23.6263 C   0  0  0  0  0  0  0  0  0  0  0  0
   -8.9263    1.6905  -23.0383 N   0  0  0  0  0  0  0  0  0  0  0  0
   -7.9894    1.0251  -22.0742 C   0  0  0  0  0  0  0  0  0  0  0  0
   -8.2851   -0.2001  -21.2608 O   0  0  0  0  0  0  0  0  0  0  0  0
   -6.7050    1.7999  -22.0663 C   0  0  0  0  0  0  0  0  0  0  0  0
   -6.7088    0.6156  -21.1458 C   0  0  0  0  0  0  0  0  0  0  0  0
   -5.4945    0.3012  -20.3231 N   0  0  0  0  0  0  0  0  0  0  0  0
   -4.2765    1.1712  -20.4209 C   0  0  0  0  0  0  0  0  0  0  0  0
   -3.0623    0.8569  -19.5982 O   0  0  0  0  0  0  0  0  0  0  0  0
   -4.2728    2.3556  -21.3414 C   0  0  0  0  0  0  0  0  0  0  0  0
   -3.0548    3.2256  -21.4392 C   0  0  0  0  0  0  0  0  0  0  0  0
   -3.0510    4.4099  -22.3597 C   0  0  0  0  0  0  0  0  0  0  0  0
   -4.2653    4.7242  -23.1824 C   0  0  0  0  0  0  0  0  0  0  0  0
   -4.2615    5.9086  -24.1030 F   0  0  0  0  0  0  0  0  0  0  0  0
   -5.4832    3.8542  -23.0846 C   0  0  0  0  0  0  0  0  0  0  0  0
   -5.4870    2.6699  -22.1641 C   0  0  0  0  0  0  0  0  0  0  0  0
  -10.3232    1.2477  -23.3583 C   0  0  0  0  0  0  0  0  0  0  0  0
  -10.6162   -0.2061  -23.5828 C   0  0  0  0  0  0  0  0  0  0  0  0
  -12.0131   -0.6490  -23.9027 N   0  0  0  0  0  0  0  0  0  0  0  0
  -13.1170    0.3620  -23.9982 C   0  0  0  0  0  0  0  0  0  0  0  0
  -12.8240    1.8159  -23.7738 C   0  0  0  0  0  0  0  0  0  0  0  0
  -13.9281    2.8269  -23.8693 C   0  0  0  0  0  0  0  0  0  0  0  0
  -13.6350    4.2808  -23.6448 C   0  0  0  0  0  0  0  0  0  0  0  0
  -12.2381    4.7236  -23.3248 C   0  0  0  0  0  0  0  0  0  0  0  0
  -11.1341    3.7126  -23.2293 C   0  0  0  0  0  0  0  0  0  0  0  0
  -11.4271    2.2588  -23.4538 C   0  0  0  0  0  0  0  0  0  0  0  0
   -5.4983   -0.8831  -19.4025 C   0  0  0  0  0  0  0  0  0  0  0  0
   -5.5324   -2.2721  -19.9677 C   0  0  0  0  0  0  0  0  0  0  0  0
   -5.1156   -3.4372  -19.1199 O   0  0  0  0  0  0  0  0  0  0  0  0
   -5.9834   -2.4961  -21.3806 N   0  0  0  0  0  0  0  0  0  0  0  0
   -6.2571   -1.7314  -21.9370 H   0  0  0  0  0  0  0  0  0  0  0  0
   -6.0176   -3.8851  -21.9458 C   0  0  0  0  0  0  0  0  0  0  0  0
   -7.1363   -4.2972  -22.8561 C   0  0  0  0  0  0  0  0  0  0  0  0
   -8.3762   -3.9550  -23.6277 C   0  0  0  0  0  0  0  0  0  0  0  0
   -7.8341   -5.3531  -23.6611 C   0  0  0  0  0  0  0  0  0  0  0  0
  2  1  1  0  0  0
  2  3  1  0  0  0
  3  4  1  0  0  0
  4 19  1  0  0  0
 19 20  2  0  0  0
 20 21  1  0  0  0
 21 22  2  0  0  0
 22 23  1  0  0  0
 23 24  2  0  0  0
 24 25  1  0  0  0
 25 26  2  0  0  0
 26 27  1  0  0  0
 27 28  2  0  0  0
  4  5  1  0  0  0
  5  6  2  0  0  0
  5  7  1  0  0  0
  7  8  1  0  0  0
  8  9  1  0  0  0
  9 29  1  0  0  0
 29 30  1  0  0  0
 30 31  2  0  0  0
 30 32  1  0  0  0
 32 34  1  0  0  0
 34 35  1  0  0  0
 35 36  1  0  0  0
 36 37  1  0  0  0
  9 10  1  0  0  0
 10 11  2  0  0  0
 10 12  1  0  0  0
 12 13  2  0  0  0
 13 14  1  0  0  0
 14 15  2  0  0  0
 15 16  1  0  0  0
 15 17  1  0  0  0
 17 18  2  0  0  0
  7  2  1  0  0  0
 37 35  1  0  0  0
 18 12  1  0  0  0
 28 19  1  0  0  0
 18  7  1  0  0  0
 28 23  1  0  0  0
 32 33  1  0  0  0
M  END
> <minimizedAffinity>
-8.60643

> <CNNscore>
0.2771898508

> <CNNaffinity>
6.1200551987

> <CNN_VS>
1.6964172125

> <CNNaffinity_variance>
0.3046138287

$$$$



 37 42  0  0  0  0  0  0  0  0999 V2000
   -7.6278   -3.2550  -24.6877 C   0  0  0  0  0  0  0  0  0  0  0  0
   -7.6845   -2.0220  -23.8352 C   0  0  0  0  0  0  0  0  0  0  0  0
   -8.3786   -0.8890  -24.5313 C   0  0  0  0  0  0  0  0  0  0  0  0
   -8.3845    0.2904  -23.6045 N   0  0  0  0  0  0  0  0  0  0  0  0
   -7.6942   -0.1138  -22.3356 C   0  0  0  0  0  0  0  0  0  0  0  0
   -7.4749    0.7582  -21.1349 O   0  0  0  0  0  0  0  0  0  0  0  0
   -7.2615   -1.5429  -22.4782 C   0  0  0  0  0  0  0  0  0  0  0  0
   -6.9028   -0.9256  -21.1590 C   0  0  0  0  0  0  0  0  0  0  0  0
   -6.1749   -1.7337  -20.1260 N   0  0  0  0  0  0  0  0  0  0  0  0
   -5.8059   -3.1592  -20.4120 C   0  0  0  0  0  0  0  0  0  0  0  0
   -5.0780   -3.9673  -19.3790 O   0  0  0  0  0  0  0  0  0  0  0  0
   -6.1646   -3.7765  -21.7312 C   0  0  0  0  0  0  0  0  0  0  0  0
   -5.7956   -5.2020  -22.0173 C   0  0  0  0  0  0  0  0  0  0  0  0
   -6.1543   -5.8193  -23.3365 C   0  0  0  0  0  0  0  0  0  0  0  0
   -6.8821   -5.0112  -24.3695 C   0  0  0  0  0  0  0  0  0  0  0  0
   -7.2409   -5.6285  -25.6887 F   0  0  0  0  0  0  0  0  0  0  0  0
   -7.2512   -3.5857  -24.0834 C   0  0  0  0  0  0  0  0  0  0  0  0
   -6.8924   -2.9684  -22.7643 C   0  0  0  0  0  0  0  0  0  0  0  0
   -8.9768    1.6374  -23.8955 C   0  0  0  0  0  0  0  0  0  0  0  0
   -8.0858    2.7817  -24.2781 C   0  0  0  0  0  0  0  0  0  0  0  0
   -8.6781    4.1287  -24.5690 N   0  0  0  0  0  0  0  0  0  0  0  0
  -10.1615    4.3314  -24.4774 C   0  0  0  0  0  0  0  0  0  0  0  0
  -11.0526    3.1870  -24.0947 C   0  0  0  0  0  0  0  0  0  0  0  0
  -12.5361    3.3897  -24.0031 C   0  0  0  0  0  0  0  0  0  0  0  0
  -13.4271    2.2453  -23.6205 C   0  0  0  0  0  0  0  0  0  0  0  0
  -12.8347    0.8983  -23.3295 C   0  0  0  0  0  0  0  0  0  0  0  0
  -11.3513    0.6957  -23.4212 C   0  0  0  0  0  0  0  0  0  0  0  0
  -10.4603    1.8400  -23.8038 C   0  0  0  0  0  0  0  0  0  0  0  0
   -5.8162   -1.1163  -18.8068 C   0  0  0  0  0  0  0  0  0  0  0  0
   -4.9963    0.1390  -18.7644 C   0  0  0  0  0  0  0  0  0  0  0  0
   -5.0840    1.0524  -17.5778 O   0  0  0  0  0  0  0  0  0  0  0  0
   -4.0888    0.4810  -19.9087 N   0  0  0  0  0  0  0  0  0  0  0  0
   -4.0313   -0.1184  -20.6875 H   0  0  0  0  0  0  0  0  0  0  0  0
   -3.2689    1.7365  -19.8664 C   0  0  0  0  0  0  0  0  0  0  0  0
   -1.8638    1.7326  -20.3912 C   0  0  0  0  0  0  0  0  0  0  0  0
   -0.8826    1.3949  -21.4743 C   0  0  0  0  0  0  0  0  0  0  0  0
   -0.4112    2.0636  -20.2172 C   0  0  0  0  0  0  0  0  0  0  0  0
  2  1  1  0  0  0
  2  3  1  0  0  0
  3  4  1  0  0  0
  4 19  1  0  0  0
 19 20  2  0  0  0
 20 21  1  0  0  0
 21 22  2  0  0  0
 22 23  1  0  0  0
 23 24  2  0  0  0
 24 25  1  0  0  0
 25 26  2  0  0  0
 26 27  1  0  0  0
 27 28  2  0  0  0
  4  5  1  0  0  0
  5  6  2  0  0  0
  5  7  1  0  0  0
  7  8  1  0  0  0
  8  9  1  0  0  0
  9 29  1  0  0  0
 29 30  1  0  0  0
 30 31  2  0  0  0
 30 32  1  0  0  0
 32 34  1  0  0  0
 34 35  1  0  0  0
 35 36  1  0  0  0
 36 37  1  0  0  0
  9 10  1  0  0  0
 10 11  2  0  0  0
 10 12  1  0  0  0
 12 13  2  0  0  0
 13 14  1  0  0  0
 14 15  2  0  0  0
 15 16  1  0  0  0
 15 17  1  0  0  0
 17 18  2  0  0  0
  7  2  1  0  0  0
 37 35  1  0  0  0
 18 12  1  0  0  0
 28 19  1  0  0  0
 18  7  1  0  0  0
 28 23  1  0  0  0
 32 33  1  0  0  0
M  END
> <minimizedAffinity>
-9.21232

> <CNNscore>
0.2458555251

> <CNNaffinity>
6.1820440292

> <CNN_VS>
1.5198897123

> <CNNaffinity_variance>
0.1424957812

$$$$



 37 42  0  0  0  0  0  0  0  0999 V2000
   -5.5733    2.7941  -22.1170 C   0  0  0  0  0  0  0  0  0  0  0  0
   -6.7076    2.2536  -22.9366 C   0  0  0  0  0  0  0  0  0  0  0  0
   -7.4364    3.3390  -23.6719 C   0  0  0  0  0  0  0  0  0  0  0  0
   -8.5450    2.7031  -24.4572 N   0  0  0  0  0  0  0  0  0  0  0  0
   -8.5013    1.2247  -24.2071 C   0  0  0  0  0  0  0  0  0  0  0  0
   -9.4301    0.2034  -24.7939 O   0  0  0  0  0  0  0  0  0  0  0  0
   -7.3657    0.9469  -23.2673 C   0  0  0  0  0  0  0  0  0  0  0  0
   -8.1226   -0.2777  -23.6883 C   0  0  0  0  0  0  0  0  0  0  0  0
   -7.7164   -1.6255  -23.1702 N   0  0  0  0  0  0  0  0  0  0  0  0
   -6.5533   -1.7487  -22.2311 C   0  0  0  0  0  0  0  0  0  0  0  0
   -6.1471   -3.0965  -21.7130 O   0  0  0  0  0  0  0  0  0  0  0  0
   -5.7963   -0.5240  -21.8101 C   0  0  0  0  0  0  0  0  0  0  0  0
   -4.6332   -0.6472  -20.8710 C   0  0  0  0  0  0  0  0  0  0  0  0
   -3.8763    0.5774  -20.4500 C   0  0  0  0  0  0  0  0  0  0  0  0
   -4.2824    1.9252  -20.9681 C   0  0  0  0  0  0  0  0  0  0  0  0
   -3.5254    3.1499  -20.5470 F   0  0  0  0  0  0  0  0  0  0  0  0
   -5.4455    2.0484  -21.9072 C   0  0  0  0  0  0  0  0  0  0  0  0
   -6.2025    0.8238  -22.3282 C   0  0  0  0  0  0  0  0  0  0  0  0
   -9.5252    3.4197  -25.3379 C   0  0  0  0  0  0  0  0  0  0  0  0
   -9.0986    3.9130  -26.6886 C   0  0  0  0  0  0  0  0  0  0  0  0
  -10.0788    4.6296  -27.5693 N   0  0  0  0  0  0  0  0  0  0  0  0
  -11.4857    4.8528  -27.0993 C   0  0  0  0  0  0  0  0  0  0  0  0
  -11.9123    4.3594  -25.7485 C   0  0  0  0  0  0  0  0  0  0  0  0
  -13.3192    4.5826  -25.2784 C   0  0  0  0  0  0  0  0  0  0  0  0
  -13.7457    4.0892  -23.9277 C   0  0  0  0  0  0  0  0  0  0  0  0
  -12.7655    3.3726  -23.0470 C   0  0  0  0  0  0  0  0  0  0  0  0
  -11.3587    3.1494  -23.5171 C   0  0  0  0  0  0  0  0  0  0  0  0
  -10.9321    3.6428  -24.8678 C   0  0  0  0  0  0  0  0  0  0  0  0
   -8.4734   -2.8502  -23.5913 C   0  0  0  0  0  0  0  0  0  0  0  0
   -9.9691   -2.8082  -23.6963 C   0  0  0  0  0  0  0  0  0  0  0  0
  -10.6329   -2.9934  -25.0287 O   0  0  0  0  0  0  0  0  0  0  0  0
  -10.8010   -2.5809  -22.4691 N   0  0  0  0  0  0  0  0  0  0  0  0
  -10.3654   -2.4593  -21.5946 H   0  0  0  0  0  0  0  0  0  0  0  0
  -12.2968   -2.5389  -22.5741 C   0  0  0  0  0  0  0  0  0  0  0  0
  -12.9801   -1.2936  -23.0562 C   0  0  0  0  0  0  0  0  0  0  0  0
  -13.0474   -0.1324  -24.0033 C   0  0  0  0  0  0  0  0  0  0  0  0
  -14.0964   -0.2979  -22.9439 C   0  0  0  0  0  0  0  0  0  0  0  0
  2  1  1  0  0  0
  2  3  1  0  0  0
  3  4  1  0  0  0
  4 19  1  0  0  0
 19 20  2  0  0  0
 20 21  1  0  0  0
 21 22  2  0  0  0
 22 23  1  0  0  0
 23 24  2  0  0  0
 24 25  1  0  0  0
 25 26  2  0  0  0
 26 27  1  0  0  0
 27 28  2  0  0  0
  4  5  1  0  0  0
  5  6  2  0  0  0
  5  7  1  0  0  0
  7  8  1  0  0  0
  8  9  1  0  0  0
  9 29  1  0  0  0
 29 30  1  0  0  0
 30 31  2  0  0  0
 30 32  1  0  0  0
 32 34  1  0  0  0
 34 35  1  0  0  0
 35 36  1  0  0  0
 36 37  1  0  0  0
  9 10  1  0  0  0
 10 11  2  0  0  0
 10 12  1  0  0  0
 12 13  2  0  0  0
 13 14  1  0  0  0
 14 15  2  0  0  0
 15 16  1  0  0  0
 15 17  1  0  0  0
 17 18  2  0  0  0
  7  2  1  0  0  0
 37 35  1  0  0  0
 18 12  1  0  0  0
 28 19  1  0  0  0
 18  7  1  0  0  0
 28 23  1  0  0  0
 32 33  1  0  0  0
M  END
> <minimizedAffinity>
-7.89008

> <CNNscore>
0.2451367378

> <CNNaffinity>
6.2022423744

> <CNN_VS>
1.5203974247

> <CNNaffinity_variance>
0.0591151044

$$$$



 37 42  0  0  0  0  0  0  0  0999 V2000
  -11.0471   -1.7748  -24.0002 C   0  0  0  0  0  0  0  0  0  0  0  0
  -10.6128   -0.3587  -23.7626 C   0  0  0  0  0  0  0  0  0  0  0  0
  -11.7657    0.5993  -23.8175 C   0  0  0  0  0  0  0  0  0  0  0  0
  -11.2336    1.9796  -23.5697 N   0  0  0  0  0  0  0  0  0  0  0  0
   -9.7518    1.8747  -23.3615 C   0  0  0  0  0  0  0  0  0  0  0  0
   -8.8177    3.0148  -23.0831 O   0  0  0  0  0  0  0  0  0  0  0  0
   -9.3681    0.4295  -23.4808 C   0  0  0  0  0  0  0  0  0  0  0  0
   -8.2147    1.3455  -23.1970 C   0  0  0  0  0  0  0  0  0  0  0  0
   -6.8296    0.7867  -23.0587 N   0  0  0  0  0  0  0  0  0  0  0  0
   -6.5979   -0.6881  -23.2042 C   0  0  0  0  0  0  0  0  0  0  0  0
   -5.2127   -1.2470  -23.0659 O   0  0  0  0  0  0  0  0  0  0  0  0
   -7.7513   -1.6042  -23.4880 C   0  0  0  0  0  0  0  0  0  0  0  0
   -7.5196   -3.0790  -23.6335 C   0  0  0  0  0  0  0  0  0  0  0  0
   -8.6730   -3.9950  -23.9173 C   0  0  0  0  0  0  0  0  0  0  0  0
  -10.0581   -3.4362  -24.0556 C   0  0  0  0  0  0  0  0  0  0  0  0
  -11.2115   -4.3522  -24.3394 F   0  0  0  0  0  0  0  0  0  0  0  0
  -10.2898   -1.9614  -23.9101 C   0  0  0  0  0  0  0  0  0  0  0  0
   -9.1364   -1.0454  -23.6263 C   0  0  0  0  0  0  0  0  0  0  0  0
  -12.0414    3.2431  -23.5358 C   0  0  0  0  0  0  0  0  0  0  0  0
  -13.0045    3.4876  -22.4123 C   0  0  0  0  0  0  0  0  0  0  0  0
  -13.8122    4.7511  -22.3785 N   0  0  0  0  0  0  0  0  0  0  0  0
  -13.6569    5.7700  -23.4683 C   0  0  0  0  0  0  0  0  0  0  0  0
  -12.6937    5.5254  -24.5919 C   0  0  0  0  0  0  0  0  0  0  0  0
  -12.5384    6.5443  -25.6818 C   0  0  0  0  0  0  0  0  0  0  0  0
  -11.5752    6.2996  -26.8054 C   0  0  0  0  0  0  0  0  0  0  0  0
  -10.7675    5.0362  -26.8392 C   0  0  0  0  0  0  0  0  0  0  0  0
  -10.9229    4.0173  -25.7493 C   0  0  0  0  0  0  0  0  0  0  0  0
  -11.8860    4.2619  -24.6257 C   0  0  0  0  0  0  0  0  0  0  0  0
   -5.6762    1.7027  -22.7749 C   0  0  0  0  0  0  0  0  0  0  0  0
   -4.8729    1.5306  -21.5199 C   0  0  0  0  0  0  0  0  0  0  0  0
   -5.4793    0.8501  -20.3286 O   0  0  0  0  0  0  0  0  0  0  0  0
   -3.4632    2.0390  -21.4561 N   0  0  0  0  0  0  0  0  0  0  0  0
   -3.0651    2.4857  -22.2380 H   0  0  0  0  0  0  0  0  0  0  0  0
   -2.6598    1.8669  -20.2011 C   0  0  0  0  0  0  0  0  0  0  0  0
   -1.1688    2.0271  -20.2371 C   0  0  0  0  0  0  0  0  0  0  0  0
    0.0597    2.8270  -19.9198 C   0  0  0  0  0  0  0  0  0  0  0  0
    0.1850    1.5047  -20.6167 C   0  0  0  0  0  0  0  0  0  0  0  0
  2  1  1  0  0  0
  2  3  1  0  0  0
  3  4  1  0  0  0
  4 19  1  0  0  0
 19 20  2  0  0  0
 20 21  1  0  0  0
 21 22  2  0  0  0
 22 23  1  0  0  0
 23 24  2  0  0  0
 24 25  1  0  0  0
 25 26  2  0  0  0
 26 27  1  0  0  0
 27 28  2  0  0  0
  4  5  1  0  0  0
  5  6  2  0  0  0
  5  7  1  0  0  0
  7  8  1  0  0  0
  8  9  1  0  0  0
  9 29  1  0  0  0
 29 30  1  0  0  0
 30 31  2  0  0  0
 30 32  1  0  0  0
 32 34  1  0  0  0
 34 35  1  0  0  0
 35 36  1  0  0  0
 36 37  1  0  0  0
  9 10  1  0  0  0
 10 11  2  0  0  0
 10 12  1  0  0  0
 12 13  2  0  0  0
 13 14  1  0  0  0
 14 15  2  0  0  0
 15 16  1  0  0  0
 15 17  1  0  0  0
 17 18  2  0  0  0
  7  2  1  0  0  0
 37 35  1  0  0  0
 18 12  1  0  0  0
 28 19  1  0  0  0
 18  7  1  0  0  0
 28 23  1  0  0  0
 32 33  1  0  0  0
M  END
> <minimizedAffinity>
-7.38174

> <CNNscore>
0.1980565637

> <CNNaffinity>
6.1688475609

> <CNN_VS>
1.2217807770

> <CNNaffinity_variance>
0.0283831861

$$$$
