


 34 38  0  0  0  0  0  0  0  0999 V2000
    7.4905   -3.3673   23.3521 C   0  0  0  0  0  0  0  0  0  0  0  0
    7.6621   -2.0581   22.6402 C   0  0  0  0  0  0  0  0  0  0  0  0
    6.5747   -1.8183   21.6351 C   0  0  0  0  0  0  0  0  0  0  0  0
    6.8326   -0.4935   20.9805 N   0  0  0  0  0  0  0  0  0  0  0  0
    8.0793    0.0854   21.5810 C   0  0  0  0  0  0  0  0  0  0  0  0
    8.7037    1.4004   21.2193 O   0  0  0  0  0  0  0  0  0  0  0  0
    8.5920   -0.8816   22.6067 C   0  0  0  0  0  0  0  0  0  0  0  0
    9.4288    0.3548   22.4619 C   0  0  0  0  0  0  0  0  0  0  0  0
   10.6559    0.5330   23.3059 N   0  0  0  0  0  0  0  0  0  0  0  0
   11.0462   -0.5251   24.2949 C   0  0  0  0  0  0  0  0  0  0  0  0
   12.2733   -0.3469   25.1389 O   0  0  0  0  0  0  0  0  0  0  0  0
   10.2093   -1.7616   24.4398 C   0  0  0  0  0  0  0  0  0  0  0  0
   10.5996   -2.8197   25.4287 C   0  0  0  0  0  0  0  0  0  0  0  0
    9.7628   -4.0561   25.5735 C   0  0  0  0  0  0  0  0  0  0  0  0
    8.5357   -4.2343   24.7295 C   0  0  0  0  0  0  0  0  0  0  0  0
    7.6988   -5.4708   24.8744 Cl  0  0  0  0  0  0  0  0  0  0  0  0
    8.1454   -3.1762   23.7406 C   0  0  0  0  0  0  0  0  0  0  0  0
    8.9822   -1.9398   23.5957 C   0  0  0  0  0  0  0  0  0  0  0  0
    5.9914    0.1410   19.9129 C   0  0  0  0  0  0  0  0  0  0  0  0
    6.3961    0.0278   18.4730 C   0  0  0  0  0  0  0  0  0  0  0  0
    5.5549    0.6623   17.4054 N   0  0  0  0  0  0  0  0  0  0  0  0
    4.3090    1.4100   17.7777 C   0  0  0  0  0  0  0  0  0  0  0  0
    3.9043    1.5232   19.2177 C   0  0  0  0  0  0  0  0  0  0  0  0
    2.6583    2.2709   19.5900 C   0  0  0  0  0  0  0  0  0  0  0  0
    2.2537    2.3841   21.0299 C   0  0  0  0  0  0  0  0  0  0  0  0
    3.0949    1.7496   22.0975 C   0  0  0  0  0  0  0  0  0  0  0  0
    4.3408    1.0019   21.7251 C   0  0  0  0  0  0  0  0  0  0  0  0
    4.7455    0.8887   20.2853 C   0  0  0  0  0  0  0  0  0  0  0  0
   11.4928    1.7695   23.1610 C   0  0  0  0  0  0  0  0  0  0  0  0
   11.0241    2.8940   22.2860 C   0  0  0  0  0  0  0  0  0  0  0  0
   10.2010    4.0045   22.8683 N   0  0  0  0  0  0  0  0  0  0  0  0
   10.7678    5.3905   22.9582 C   0  0  0  0  0  0  0  0  0  0  0  0
    8.8112    3.7292   23.3608 C   0  0  0  0  0  0  0  0  0  0  0  0
    9.6413    4.7597   23.2643 H   0  0  0  0  0  0  0  0  0  0  0  0
  2  1  1  0  0  0
  2  3  1  0  0  0
  3  4  1  0  0  0
  4 19  1  0  0  0
 19 20  2  0  0  0
 20 21  1  0  0  0
 21 22  2  0  0  0
 22 23  1  0  0  0
 23 24  2  0  0  0
 24 25  1  0  0  0
 25 26  2  0  0  0
 26 27  1  0  0  0
 27 28  2  0  0  0
  4  5  1  0  0  0
  5  6  2  0  0  0
  5  7  1  0  0  0
  7  8  1  0  0  0
  8  9  1  0  0  0
  9 29  1  0  0  0
 29 30  1  0  0  0
 30 31  1  0  0  0
 31 32  1  0  0  0
 31 33  1  0  0  0
  9 10  1  0  0  0
 10 11  2  0  0  0
 10 12  1  0  0  0
 12 13  2  0  0  0
 13 14  1  0  0  0
 14 15  2  0  0  0
 15 16  1  0  0  0
 15 17  1  0  0  0
 17 18  2  0  0  0
  7  2  1  0  0  0
 18 12  1  0  0  0
 28 19  1  0  0  0
 18  7  1  0  0  0
 28 23  1  0  0  0
 31 34  1  0  0  0
M  CHG 1  31   1
M  END
> <minimizedAffinity>
-8.85461

> <CNNscore>
0.6741901040

> <CNNaffinity>
6.7953820229

> <CNN_VS>
4.5813794136

> <CNNaffinity_variance>
0.0349313691

$$$$



 34 38  0  0  0  0  0  0  0  0999 V2000
   10.6977   -1.2084   22.5344 C   0  0  0  0  0  0  0  0  0  0  0  0
    9.2003   -1.1502   22.4679 C   0  0  0  0  0  0  0  0  0  0  0  0
    8.7180   -0.5446   21.1831 C   0  0  0  0  0  0  0  0  0  0  0  0
    7.2184   -0.5305   21.2115 N   0  0  0  0  0  0  0  0  0  0  0  0
    6.7738   -1.1273   22.5139 C   0  0  0  0  0  0  0  0  0  0  0  0
    5.3537   -1.3092   22.9612 O   0  0  0  0  0  0  0  0  0  0  0  0
    7.9987   -1.5103   23.2904 C   0  0  0  0  0  0  0  0  0  0  0  0
    6.7099   -1.8142   23.9951 C   0  0  0  0  0  0  0  0  0  0  0  0
    6.7297   -2.4463   25.3552 N   0  0  0  0  0  0  0  0  0  0  0  0
    8.0383   -2.7746   26.0107 C   0  0  0  0  0  0  0  0  0  0  0  0
    8.0581   -3.4068   27.3708 O   0  0  0  0  0  0  0  0  0  0  0  0
    9.3272   -2.4708   25.3060 C   0  0  0  0  0  0  0  0  0  0  0  0
   10.6358   -2.7991   25.9615 C   0  0  0  0  0  0  0  0  0  0  0  0
   11.9246   -2.4953   25.2568 C   0  0  0  0  0  0  0  0  0  0  0  0
   11.9048   -1.8631   23.8967 C   0  0  0  0  0  0  0  0  0  0  0  0
   13.1937   -1.5593   23.1920 Cl  0  0  0  0  0  0  0  0  0  0  0  0
   10.5962   -1.5348   23.2412 C   0  0  0  0  0  0  0  0  0  0  0  0
    9.3074   -1.8386   23.9459 C   0  0  0  0  0  0  0  0  0  0  0  0
    6.3209   -0.0107   20.1279 C   0  0  0  0  0  0  0  0  0  0  0  0
    6.3402   -0.6458   18.7692 C   0  0  0  0  0  0  0  0  0  0  0  0
    5.4427   -0.1261   17.6855 N   0  0  0  0  0  0  0  0  0  0  0  0
    4.5258    1.0288   17.9606 C   0  0  0  0  0  0  0  0  0  0  0  0
    4.5065    1.6639   19.3194 C   0  0  0  0  0  0  0  0  0  0  0  0
    3.5896    2.8188   19.5945 C   0  0  0  0  0  0  0  0  0  0  0  0
    3.5703    3.4538   20.9533 C   0  0  0  0  0  0  0  0  0  0  0  0
    4.4678    2.9340   22.0369 C   0  0  0  0  0  0  0  0  0  0  0  0
    5.3847    1.7792   21.7618 C   0  0  0  0  0  0  0  0  0  0  0  0
    5.4040    1.1441   20.4031 C   0  0  0  0  0  0  0  0  0  0  0  0
    5.4408   -2.7501   26.0599 C   0  0  0  0  0  0  0  0  0  0  0  0
    5.3742   -3.8753   27.0495 C   0  0  0  0  0  0  0  0  0  0  0  0
    4.8424   -3.6292   28.4303 N   0  0  0  0  0  0  0  0  0  0  0  0
    3.5001   -4.1705   28.8246 C   0  0  0  0  0  0  0  0  0  0  0  0
    5.6528   -2.8417   29.4168 C   0  0  0  0  0  0  0  0  0  0  0  0
    4.4807   -3.4618   29.3692 H   0  0  0  0  0  0  0  0  0  0  0  0
  2  1  1  0  0  0
  2  3  1  0  0  0
  3  4  1  0  0  0
  4 19  1  0  0  0
 19 20  2  0  0  0
 20 21  1  0  0  0
 21 22  2  0  0  0
 22 23  1  0  0  0
 23 24  2  0  0  0
 24 25  1  0  0  0
 25 26  2  0  0  0
 26 27  1  0  0  0
 27 28  2  0  0  0
  4  5  1  0  0  0
  5  6  2  0  0  0
  5  7  1  0  0  0
  7  8  1  0  0  0
  8  9  1  0  0  0
  9 29  1  0  0  0
 29 30  1  0  0  0
 30 31  1  0  0  0
 31 32  1  0  0  0
 31 33  1  0  0  0
  9 10  1  0  0  0
 10 11  2  0  0  0
 10 12  1  0  0  0
 12 13  2  0  0  0
 13 14  1  0  0  0
 14 15  2  0  0  0
 15 16  1  0  0  0
 15 17  1  0  0  0
 17 18  2  0  0  0
  7  2  1  0  0  0
 18 12  1  0  0  0
 28 19  1  0  0  0
 18  7  1  0  0  0
 28 23  1  0  0  0
 31 34  1  0  0  0
M  CHG 1  31   1
M  END
> <minimizedAffinity>
-8.15541

> <CNNscore>
0.5889881253

> <CNNaffinity>
6.6058249474

> <CNN_VS>
3.8907525539

> <CNNaffinity_variance>
0.0966908783

$$$$



 34 38  0  0  0  0  0  0  0  0999 V2000
    6.1045   -2.8646   24.1183 C   0  0  0  0  0  0  0  0  0  0  0  0
    6.6532   -1.8016   23.2133 C   0  0  0  0  0  0  0  0  0  0  0  0
    5.7192   -1.4901   22.0816 C   0  0  0  0  0  0  0  0  0  0  0  0
    6.3522   -0.4232   21.2384 N   0  0  0  0  0  0  0  0  0  0  0  0
    7.6774   -0.0753   21.8490 C   0  0  0  0  0  0  0  0  0  0  0  0
    8.6465    0.9453   21.3300 O   0  0  0  0  0  0  0  0  0  0  0  0
    7.8634   -0.9272   23.0695 C   0  0  0  0  0  0  0  0  0  0  0  0
    9.0055    0.0064   22.7972 C   0  0  0  0  0  0  0  0  0  0  0  0
   10.1932    0.0255   23.7132 N   0  0  0  0  0  0  0  0  0  0  0  0
   10.2389   -0.8888   24.9014 C   0  0  0  0  0  0  0  0  0  0  0  0
   11.4266   -0.8696   25.8173 O   0  0  0  0  0  0  0  0  0  0  0  0
    9.0968   -1.8224   25.1737 C   0  0  0  0  0  0  0  0  0  0  0  0
    9.1425   -2.7368   26.3619 C   0  0  0  0  0  0  0  0  0  0  0  0
    8.0004   -3.6703   26.6341 C   0  0  0  0  0  0  0  0  0  0  0  0
    6.8127   -3.6894   25.7182 C   0  0  0  0  0  0  0  0  0  0  0  0
    5.6706   -4.6230   25.9905 Cl  0  0  0  0  0  0  0  0  0  0  0  0
    6.7670   -2.7751   24.5300 C   0  0  0  0  0  0  0  0  0  0  0  0
    7.9091   -1.8416   24.2577 C   0  0  0  0  0  0  0  0  0  0  0  0
    5.7634    0.1884   20.0018 C   0  0  0  0  0  0  0  0  0  0  0  0
    6.4162   -0.0362   18.6702 C   0  0  0  0  0  0  0  0  0  0  0  0
    5.8275    0.5754   17.4336 N   0  0  0  0  0  0  0  0  0  0  0  0
    4.5858    1.4116   17.5286 C   0  0  0  0  0  0  0  0  0  0  0  0
    3.9329    1.6362   18.8603 C   0  0  0  0  0  0  0  0  0  0  0  0
    2.6912    2.4725   18.9553 C   0  0  0  0  0  0  0  0  0  0  0  0
    2.0384    2.6970   20.2870 C   0  0  0  0  0  0  0  0  0  0  0  0
    2.6272    2.0854   21.5236 C   0  0  0  0  0  0  0  0  0  0  0  0
    3.8689    1.2492   21.4285 C   0  0  0  0  0  0  0  0  0  0  0  0
    4.5217    1.0246   20.0969 C   0  0  0  0  0  0  0  0  0  0  0  0
   11.3354    0.9591   23.4409 C   0  0  0  0  0  0  0  0  0  0  0  0
   12.7130    0.4119   23.2114 C   0  0  0  0  0  0  0  0  0  0  0  0
   12.8904   -1.0063   22.7565 N   0  0  0  0  0  0  0  0  0  0  0  0
   13.3558   -2.0522   23.7259 C   0  0  0  0  0  0  0  0  0  0  0  0
   12.6025   -1.3788   21.3323 C   0  0  0  0  0  0  0  0  0  0  0  0
   13.0111   -1.9708   22.4472 H   0  0  0  0  0  0  0  0  0  0  0  0
  2  1  1  0  0  0
  2  3  1  0  0  0
  3  4  1  0  0  0
  4 19  1  0  0  0
 19 20  2  0  0  0
 20 21  1  0  0  0
 21 22  2  0  0  0
 22 23  1  0  0  0
 23 24  2  0  0  0
 24 25  1  0  0  0
 25 26  2  0  0  0
 26 27  1  0  0  0
 27 28  2  0  0  0
  4  5  1  0  0  0
  5  6  2  0  0  0
  5  7  1  0  0  0
  7  8  1  0  0  0
  8  9  1  0  0  0
  9 29  1  0  0  0
 29 30  1  0  0  0
 30 31  1  0  0  0
 31 32  1  0  0  0
 31 33  1  0  0  0
  9 10  1  0  0  0
 10 11  2  0  0  0
 10 12  1  0  0  0
 12 13  2  0  0  0
 13 14  1  0  0  0
 14 15  2  0  0  0
 15 16  1  0  0  0
 15 17  1  0  0  0
 17 18  2  0  0  0
  7  2  1  0  0  0
 18 12  1  0  0  0
 28 19  1  0  0  0
 18  7  1  0  0  0
 28 23  1  0  0  0
 31 34  1  0  0  0
M  CHG 1  31   1
M  END
> <minimizedAffinity>
-8.22612

> <CNNscore>
0.4654644728

> <CNNaffinity>
6.5283026695

> <CNN_VS>
3.0386929512

> <CNNaffinity_variance>
0.0483804308

$$$$



 34 38  0  0  0  0  0  0  0  0999 V2000
    9.2194   -2.9338   26.4009 C   0  0  0  0  0  0  0  0  0  0  0  0
    8.5610   -1.7807   25.7031 C   0  0  0  0  0  0  0  0  0  0  0  0
    7.0820   -1.7445   25.9505 C   0  0  0  0  0  0  0  0  0  0  0  0
    6.5180   -0.5644   25.2161 N   0  0  0  0  0  0  0  0  0  0  0  0
    7.6484    0.1287   24.5149 C   0  0  0  0  0  0  0  0  0  0  0  0
    7.5359    1.3577   23.6623 O   0  0  0  0  0  0  0  0  0  0  0  0
    8.9111   -0.6230   24.8158 C   0  0  0  0  0  0  0  0  0  0  0  0
    9.1086    0.5716   23.9305 C   0  0  0  0  0  0  0  0  0  0  0  0
   10.4804    0.9170   23.4318 N   0  0  0  0  0  0  0  0  0  0  0  0
   11.6548    0.0677   23.8184 C   0  0  0  0  0  0  0  0  0  0  0  0
   13.0267    0.4131   23.3197 O   0  0  0  0  0  0  0  0  0  0  0  0
   11.4574   -1.1270   24.7038 C   0  0  0  0  0  0  0  0  0  0  0  0
   12.6318   -1.9763   25.0904 C   0  0  0  0  0  0  0  0  0  0  0  0
   12.4343   -3.1709   25.9757 C   0  0  0  0  0  0  0  0  0  0  0  0
   11.0625   -3.5162   26.4744 C   0  0  0  0  0  0  0  0  0  0  0  0
   10.8650   -4.7109   27.3598 Cl  0  0  0  0  0  0  0  0  0  0  0  0
    9.8881   -2.6670   26.0878 C   0  0  0  0  0  0  0  0  0  0  0  0
   10.0855   -1.4724   25.2025 C   0  0  0  0  0  0  0  0  0  0  0  0
    5.0766   -0.1502   25.1879 C   0  0  0  0  0  0  0  0  0  0  0  0
    4.4700    0.3684   23.9179 C   0  0  0  0  0  0  0  0  0  0  0  0
    3.0286    0.7827   23.8897 N   0  0  0  0  0  0  0  0  0  0  0  0
    2.1939    0.6783   25.1316 C   0  0  0  0  0  0  0  0  0  0  0  0
    2.8005    0.1596   26.4016 C   0  0  0  0  0  0  0  0  0  0  0  0
    1.9656    0.0552   27.6436 C   0  0  0  0  0  0  0  0  0  0  0  0
    2.5723   -0.4635   28.9136 C   0  0  0  0  0  0  0  0  0  0  0  0
    4.0137   -0.8777   28.9417 C   0  0  0  0  0  0  0  0  0  0  0  0
    4.8484   -0.7733   27.6998 C   0  0  0  0  0  0  0  0  0  0  0  0
    4.2419   -0.2547   26.4298 C   0  0  0  0  0  0  0  0  0  0  0  0
   10.6779    2.1117   22.5464 C   0  0  0  0  0  0  0  0  0  0  0  0
   10.1135    3.4427   22.9460 C   0  0  0  0  0  0  0  0  0  0  0  0
   10.8484    4.7035   22.5992 N   0  0  0  0  0  0  0  0  0  0  0  0
   12.1477    4.6332   21.8528 C   0  0  0  0  0  0  0  0  0  0  0  0
   10.2840    6.0346   22.9987 C   0  0  0  0  0  0  0  0  0  0  0  0
   11.3481    5.5609   22.3634 H   0  0  0  0  0  0  0  0  0  0  0  0
  2  1  1  0  0  0
  2  3  1  0  0  0
  3  4  1  0  0  0
  4 19  1  0  0  0
 19 20  2  0  0  0
 20 21  1  0  0  0
 21 22  2  0  0  0
 22 23  1  0  0  0
 23 24  2  0  0  0
 24 25  1  0  0  0
 25 26  2  0  0  0
 26 27  1  0  0  0
 27 28  2  0  0  0
  4  5  1  0  0  0
  5  6  2  0  0  0
  5  7  1  0  0  0
  7  8  1  0  0  0
  8  9  1  0  0  0
  9 29  1  0  0  0
 29 30  1  0  0  0
 30 31  1  0  0  0
 31 32  1  0  0  0
 31 33  1  0  0  0
  9 10  1  0  0  0
 10 11  2  0  0  0
 10 12  1  0  0  0
 12 13  2  0  0  0
 13 14  1  0  0  0
 14 15  2  0  0  0
 15 16  1  0  0  0
 15 17  1  0  0  0
 17 18  2  0  0  0
  7  2  1  0  0  0
 18 12  1  0  0  0
 28 19  1  0  0  0
 18  7  1  0  0  0
 28 23  1  0  0  0
 31 34  1  0  0  0
M  CHG 1  31   1
M  END
> <minimizedAffinity>
-7.30542

> <CNNscore>
0.4292869270

> <CNNaffinity>
6.4778046608

> <CNN_VS>
2.7808368206

> <CNNaffinity_variance>
0.2776629329

$$$$



 34 38  0  0  0  0  0  0  0  0999 V2000
    9.7529   -2.2741   25.8853 C   0  0  0  0  0  0  0  0  0  0  0  0
    9.0651   -1.0705   25.3123 C   0  0  0  0  0  0  0  0  0  0  0  0
    7.6158   -1.0161   25.6954 C   0  0  0  0  0  0  0  0  0  0  0  0
    7.0192    0.2143   25.0788 N   0  0  0  0  0  0  0  0  0  0  0  0
    8.0998    0.9203   24.3146 C   0  0  0  0  0  0  0  0  0  0  0  0
    7.9433    2.1964   23.5418 O   0  0  0  0  0  0  0  0  0  0  0  0
    9.3642    0.1263   24.4589 C   0  0  0  0  0  0  0  0  0  0  0  0
    9.5125    1.3631   23.6233 C   0  0  0  0  0  0  0  0  0  0  0  0
   10.8425    1.7057   23.0202 N   0  0  0  0  0  0  0  0  0  0  0  0
   12.0241    0.8115   23.2526 C   0  0  0  0  0  0  0  0  0  0  0  0
   13.3541    1.1541   22.6494 O   0  0  0  0  0  0  0  0  0  0  0  0
   11.8758   -0.4254   24.0881 C   0  0  0  0  0  0  0  0  0  0  0  0
   13.0574   -1.3197   24.3205 C   0  0  0  0  0  0  0  0  0  0  0  0
   12.9091   -2.5565   25.1561 C   0  0  0  0  0  0  0  0  0  0  0  0
   11.5791   -2.8991   25.7592 C   0  0  0  0  0  0  0  0  0  0  0  0
   11.4308   -4.1360   26.5948 Cl  0  0  0  0  0  0  0  0  0  0  0  0
   10.3975   -2.0049   25.5269 C   0  0  0  0  0  0  0  0  0  0  0  0
   10.5458   -0.7680   24.6913 C   0  0  0  0  0  0  0  0  0  0  0  0
    5.5926    0.6604   25.2043 C   0  0  0  0  0  0  0  0  0  0  0  0
    4.5726    0.2012   24.2051 C   0  0  0  0  0  0  0  0  0  0  0  0
    3.1459    0.6472   24.3307 N   0  0  0  0  0  0  0  0  0  0  0  0
    2.7395    1.5525   25.4555 C   0  0  0  0  0  0  0  0  0  0  0  0
    3.7596    2.0118   26.4547 C   0  0  0  0  0  0  0  0  0  0  0  0
    3.3530    2.9171   27.5796 C   0  0  0  0  0  0  0  0  0  0  0  0
    4.3732    3.3763   28.5788 C   0  0  0  0  0  0  0  0  0  0  0  0
    5.7998    2.9302   28.4532 C   0  0  0  0  0  0  0  0  0  0  0  0
    6.2063    2.0249   27.3284 C   0  0  0  0  0  0  0  0  0  0  0  0
    5.1862    1.5657   26.3292 C   0  0  0  0  0  0  0  0  0  0  0  0
   10.9908    2.9426   22.1846 C   0  0  0  0  0  0  0  0  0  0  0  0
   11.5028    4.2092   22.8039 C   0  0  0  0  0  0  0  0  0  0  0  0
   10.7292    5.4851   22.6506 N   0  0  0  0  0  0  0  0  0  0  0  0
   11.3742    6.6817   22.0163 C   0  0  0  0  0  0  0  0  0  0  0  0
    9.3106    5.5645   23.1314 C   0  0  0  0  0  0  0  0  0  0  0  0
   10.2031    6.3527   22.5462 H   0  0  0  0  0  0  0  0  0  0  0  0
  2  1  1  0  0  0
  2  3  1  0  0  0
  3  4  1  0  0  0
  4 19  1  0  0  0
 19 20  2  0  0  0
 20 21  1  0  0  0
 21 22  2  0  0  0
 22 23  1  0  0  0
 23 24  2  0  0  0
 24 25  1  0  0  0
 25 26  2  0  0  0
 26 27  1  0  0  0
 27 28  2  0  0  0
  4  5  1  0  0  0
  5  6  2  0  0  0
  5  7  1  0  0  0
  7  8  1  0  0  0
  8  9  1  0  0  0
  9 29  1  0  0  0
 29 30  1  0  0  0
 30 31  1  0  0  0
 31 32  1  0  0  0
 31 33  1  0  0  0
  9 10  1  0  0  0
 10 11  2  0  0  0
 10 12  1  0  0  0
 12 13  2  0  0  0
 13 14  1  0  0  0
 14 15  2  0  0  0
 15 16  1  0  0  0
 15 17  1  0  0  0
 17 18  2  0  0  0
  7  2  1  0  0  0
 18 12  1  0  0  0
 28 19  1  0  0  0
 18  7  1  0  0  0
 28 23  1  0  0  0
 31 34  1  0  0  0
M  CHG 1  31   1
M  END
> <minimizedAffinity>
-7.35782

> <CNNscore>
0.3768046200

> <CNNaffinity>
6.3768529892

> <CNN_VS>
2.4028277397

> <CNNaffinity_variance>
0.1093324795

$$$$



 34 38  0  0  0  0  0  0  0  0999 V2000
   10.5388   -0.3323   22.8659 C   0  0  0  0  0  0  0  0  0  0  0  0
    9.0788   -0.5808   22.6271 C   0  0  0  0  0  0  0  0  0  0  0  0
    8.6096    0.0240   21.3371 C   0  0  0  0  0  0  0  0  0  0  0  0
    7.1474   -0.2764   21.1892 N   0  0  0  0  0  0  0  0  0  0  0  0
    6.7131   -1.0668   22.3878 C   0  0  0  0  0  0  0  0  0  0  0  0
    5.3281   -1.5792   22.6514 O   0  0  0  0  0  0  0  0  0  0  0  0
    7.9067   -1.2550   23.2765 C   0  0  0  0  0  0  0  0  0  0  0  0
    6.6497   -1.8819   23.8025 C   0  0  0  0  0  0  0  0  0  0  0  0
    6.6680   -2.6154   25.1108 N   0  0  0  0  0  0  0  0  0  0  0  0
    7.9435   -2.7221   25.8930 C   0  0  0  0  0  0  0  0  0  0  0  0
    7.9618   -3.4556   27.2013 O   0  0  0  0  0  0  0  0  0  0  0  0
    9.2006   -2.0952   25.3670 C   0  0  0  0  0  0  0  0  0  0  0  0
   10.4760   -2.2018   26.1492 C   0  0  0  0  0  0  0  0  0  0  0  0
   11.7331   -1.5749   25.6231 C   0  0  0  0  0  0  0  0  0  0  0  0
   11.7147   -0.8414   24.3149 C   0  0  0  0  0  0  0  0  0  0  0  0
   12.9718   -0.2145   23.7888 Cl  0  0  0  0  0  0  0  0  0  0  0  0
   10.4393   -0.7347   23.5326 C   0  0  0  0  0  0  0  0  0  0  0  0
    9.1822   -1.3616   24.0587 C   0  0  0  0  0  0  0  0  0  0  0  0
    6.2731    0.1405   20.0439 C   0  0  0  0  0  0  0  0  0  0  0  0
    6.4457   -0.4979   18.6976 C   0  0  0  0  0  0  0  0  0  0  0  0
    5.5713   -0.0810   17.5523 N   0  0  0  0  0  0  0  0  0  0  0  0
    4.5245    0.9743   17.7533 C   0  0  0  0  0  0  0  0  0  0  0  0
    4.3520    1.6127   19.0997 C   0  0  0  0  0  0  0  0  0  0  0  0
    3.3051    2.6681   19.3007 C   0  0  0  0  0  0  0  0  0  0  0  0
    3.1326    3.3064   20.6471 C   0  0  0  0  0  0  0  0  0  0  0  0
    4.0069    2.8895   21.7923 C   0  0  0  0  0  0  0  0  0  0  0  0
    5.0537    1.8342   21.5913 C   0  0  0  0  0  0  0  0  0  0  0  0
    5.2263    1.1958   20.2450 C   0  0  0  0  0  0  0  0  0  0  0  0
    5.4109   -3.2423   25.6368 C   0  0  0  0  0  0  0  0  0  0  0  0
    4.8749   -4.4925   25.0046 C   0  0  0  0  0  0  0  0  0  0  0  0
    4.7501   -5.7486   25.8150 N   0  0  0  0  0  0  0  0  0  0  0  0
    5.1343   -7.0690   25.2157 C   0  0  0  0  0  0  0  0  0  0  0  0
    4.2411   -5.6843   27.2245 C   0  0  0  0  0  0  0  0  0  0  0  0
    4.6652   -6.6027   26.3660 H   0  0  0  0  0  0  0  0  0  0  0  0
  2  1  1  0  0  0
  2  3  1  0  0  0
  3  4  1  0  0  0
  4 19  1  0  0  0
 19 20  2  0  0  0
 20 21  1  0  0  0
 21 22  2  0  0  0
 22 23  1  0  0  0
 23 24  2  0  0  0
 24 25  1  0  0  0
 25 26  2  0  0  0
 26 27  1  0  0  0
 27 28  2  0  0  0
  4  5  1  0  0  0
  5  6  2  0  0  0
  5  7  1  0  0  0
  7  8  1  0  0  0
  8  9  1  0  0  0
  9 29  1  0  0  0
 29 30  1  0  0  0
 30 31  1  0  0  0
 31 32  1  0  0  0
 31 33  1  0  0  0
  9 10  1  0  0  0
 10 11  2  0  0  0
 10 12  1  0  0  0
 12 13  2  0  0  0
 13 14  1  0  0  0
 14 15  2  0  0  0
 15 16  1  0  0  0
 15 17  1  0  0  0
 17 18  2  0  0  0
  7  2  1  0  0  0
 18 12  1  0  0  0
 28 19  1  0  0  0
 18  7  1  0  0  0
 28 23  1  0  0  0
 31 34  1  0  0  0
M  CHG 1  31   1
M  END
> <minimizedAffinity>
-8.38413

> <CNNscore>
0.3687235713

> <CNNaffinity>
6.4019136429

> <CNN_VS>
2.3605365753

> <CNNaffinity_variance>
0.0594404265

$$$$



 34 38  0  0  0  0  0  0  0  0999 V2000
   10.8355   -3.0694   25.9633 C   0  0  0  0  0  0  0  0  0  0  0  0
    9.4245   -2.8018   25.5300 C   0  0  0  0  0  0  0  0  0  0  0  0
    8.4604   -3.7924   26.1126 C   0  0  0  0  0  0  0  0  0  0  0  0
    7.0857   -3.4434   25.6243 N   0  0  0  0  0  0  0  0  0  0  0  0
    7.2002   -2.2372   24.7400 C   0  0  0  0  0  0  0  0  0  0  0  0
    6.0679   -1.5485   24.0374 O   0  0  0  0  0  0  0  0  0  0  0  0
    8.6456   -1.8407   24.6817 C   0  0  0  0  0  0  0  0  0  0  0  0
    7.7386   -0.9611   23.8733 C   0  0  0  0  0  0  0  0  0  0  0  0
    8.3056    0.1938   23.1021 N   0  0  0  0  0  0  0  0  0  0  0  0
    9.7797    0.4691   23.1393 C   0  0  0  0  0  0  0  0  0  0  0  0
   10.3467    1.6239   22.3681 O   0  0  0  0  0  0  0  0  0  0  0  0
   10.6868   -0.4106   23.9477 C   0  0  0  0  0  0  0  0  0  0  0  0
   12.1608   -0.1353   23.9849 C   0  0  0  0  0  0  0  0  0  0  0  0
   13.0678   -1.0149   24.7933 C   0  0  0  0  0  0  0  0  0  0  0  0
   12.5008   -2.1698   25.5645 C   0  0  0  0  0  0  0  0  0  0  0  0
   13.4079   -3.0494   26.3730 Cl  0  0  0  0  0  0  0  0  0  0  0  0
   11.0267   -2.4451   25.5273 C   0  0  0  0  0  0  0  0  0  0  0  0
   10.1197   -1.5654   24.7189 C   0  0  0  0  0  0  0  0  0  0  0  0
    5.8189   -4.1726   25.9612 C   0  0  0  0  0  0  0  0  0  0  0  0
    5.1510   -5.0319   24.9291 C   0  0  0  0  0  0  0  0  0  0  0  0
    3.8842   -5.7611   25.2660 N   0  0  0  0  0  0  0  0  0  0  0  0
    3.2854   -5.6310   26.6351 C   0  0  0  0  0  0  0  0  0  0  0  0
    3.9534   -4.7716   27.6673 C   0  0  0  0  0  0  0  0  0  0  0  0
    3.3545   -4.6415   29.0365 C   0  0  0  0  0  0  0  0  0  0  0  0
    4.0226   -3.7822   30.0686 C   0  0  0  0  0  0  0  0  0  0  0  0
    5.2893   -3.0531   29.7317 C   0  0  0  0  0  0  0  0  0  0  0  0
    5.8881   -3.1832   28.3625 C   0  0  0  0  0  0  0  0  0  0  0  0
    5.2202   -4.0424   27.3304 C   0  0  0  0  0  0  0  0  0  0  0  0
    7.3986    1.0734   22.2936 C   0  0  0  0  0  0  0  0  0  0  0  0
    7.1485    0.7651   20.8471 C   0  0  0  0  0  0  0  0  0  0  0  0
    5.7456    0.5690   20.3538 N   0  0  0  0  0  0  0  0  0  0  0  0
    5.4965    0.2460   18.9102 C   0  0  0  0  0  0  0  0  0  0  0  0
    4.5918    0.6958   21.3039 C   0  0  0  0  0  0  0  0  0  0  0  0
    4.7917    0.4356   20.0183 H   0  0  0  0  0  0  0  0  0  0  0  0
  2  1  1  0  0  0
  2  3  1  0  0  0
  3  4  1  0  0  0
  4 19  1  0  0  0
 19 20  2  0  0  0
 20 21  1  0  0  0
 21 22  2  0  0  0
 22 23  1  0  0  0
 23 24  2  0  0  0
 24 25  1  0  0  0
 25 26  2  0  0  0
 26 27  1  0  0  0
 27 28  2  0  0  0
  4  5  1  0  0  0
  5  6  2  0  0  0
  5  7  1  0  0  0
  7  8  1  0  0  0
  8  9  1  0  0  0
  9 29  1  0  0  0
 29 30  1  0  0  0
 30 31  1  0  0  0
 31 32  1  0  0  0
 31 33  1  0  0  0
  9 10  1  0  0  0
 10 11  2  0  0  0
 10 12  1  0  0  0
 12 13  2  0  0  0
 13 14  1  0  0  0
 14 15  2  0  0  0
 15 16  1  0  0  0
 15 17  1  0  0  0
 17 18  2  0  0  0
  7  2  1  0  0  0
 18 12  1  0  0  0
 28 19  1  0  0  0
 18  7  1  0  0  0
 28 23  1  0  0  0
 31 34  1  0  0  0
M  CHG 1  31   1
M  END
> <minimizedAffinity>
-7.61673

> <CNNscore>
0.3656047583

> <CNNaffinity>
6.3862285614

> <CNN_VS>
2.3348355293

> <CNNaffinity_variance>
0.1255426109

$$$$



 34 38  0  0  0  0  0  0  0  0999 V2000
   10.6775   -3.4662   25.3248 C   0  0  0  0  0  0  0  0  0  0  0  0
    9.4293   -3.1767   24.5448 C   0  0  0  0  0  0  0  0  0  0  0  0
    8.4108   -4.2684   24.6891 C   0  0  0  0  0  0  0  0  0  0  0  0
    7.2071   -3.8893   23.8783 N   0  0  0  0  0  0  0  0  0  0  0  0
    7.4817   -2.5634   23.2329 C   0  0  0  0  0  0  0  0  0  0  0  0
    6.5470   -1.8102   22.3335 O   0  0  0  0  0  0  0  0  0  0  0  0
    8.8552   -2.1230   23.6449 C   0  0  0  0  0  0  0  0  0  0  0  0
    8.1527   -1.1592   22.7351 C   0  0  0  0  0  0  0  0  0  0  0  0
    8.8326    0.1118   22.3200 N   0  0  0  0  0  0  0  0  0  0  0  0
   10.2150    0.4190   22.8146 C   0  0  0  0  0  0  0  0  0  0  0  0
   10.8948    1.6900   22.3994 O   0  0  0  0  0  0  0  0  0  0  0  0
   10.9175   -0.5448   23.7244 C   0  0  0  0  0  0  0  0  0  0  0  0
   12.2998   -0.2375   24.2190 C   0  0  0  0  0  0  0  0  0  0  0  0
   13.0023   -1.2013   25.1287 C   0  0  0  0  0  0  0  0  0  0  0  0
   12.3224   -2.4723   25.5439 C   0  0  0  0  0  0  0  0  0  0  0  0
   13.0249   -3.4360   26.4537 Cl  0  0  0  0  0  0  0  0  0  0  0  0
   10.9401   -2.7795   25.0493 C   0  0  0  0  0  0  0  0  0  0  0  0
   10.2376   -1.8158   24.1395 C   0  0  0  0  0  0  0  0  0  0  0  0
    5.9495   -4.6947   23.7376 C   0  0  0  0  0  0  0  0  0  0  0  0
    5.6017   -5.3179   22.4183 C   0  0  0  0  0  0  0  0  0  0  0  0
    4.3441   -6.1233   22.2775 N   0  0  0  0  0  0  0  0  0  0  0  0
    3.4344   -6.3055   23.4562 C   0  0  0  0  0  0  0  0  0  0  0  0
    3.7822   -5.6823   24.7755 C   0  0  0  0  0  0  0  0  0  0  0  0
    2.8724   -5.8646   25.9542 C   0  0  0  0  0  0  0  0  0  0  0  0
    3.2203   -5.2414   27.2735 C   0  0  0  0  0  0  0  0  0  0  0  0
    4.4779   -4.4360   27.4141 C   0  0  0  0  0  0  0  0  0  0  0  0
    5.3876   -4.2538   26.2355 C   0  0  0  0  0  0  0  0  0  0  0  0
    5.0398   -4.8769   24.9163 C   0  0  0  0  0  0  0  0  0  0  0  0
    8.1301    1.0755   21.4102 C   0  0  0  0  0  0  0  0  0  0  0  0
    6.9521    1.8573   21.9113 C   0  0  0  0  0  0  0  0  0  0  0  0
    7.1029    3.3133   22.2389 N   0  0  0  0  0  0  0  0  0  0  0  0
    6.1203    4.3094   21.6981 C   0  0  0  0  0  0  0  0  0  0  0  0
    8.2361    3.7733   23.1074 C   0  0  0  0  0  0  0  0  0  0  0  0
    7.2054    4.3034   22.4617 H   0  0  0  0  0  0  0  0  0  0  0  0
  2  1  1  0  0  0
  2  3  1  0  0  0
  3  4  1  0  0  0
  4 19  1  0  0  0
 19 20  2  0  0  0
 20 21  1  0  0  0
 21 22  2  0  0  0
 22 23  1  0  0  0
 23 24  2  0  0  0
 24 25  1  0  0  0
 25 26  2  0  0  0
 26 27  1  0  0  0
 27 28  2  0  0  0
  4  5  1  0  0  0
  5  6  2  0  0  0
  5  7  1  0  0  0
  7  8  1  0  0  0
  8  9  1  0  0  0
  9 29  1  0  0  0
 29 30  1  0  0  0
 30 31  1  0  0  0
 31 32  1  0  0  0
 31 33  1  0  0  0
  9 10  1  0  0  0
 10 11  2  0  0  0
 10 12  1  0  0  0
 12 13  2  0  0  0
 13 14  1  0  0  0
 14 15  2  0  0  0
 15 16  1  0  0  0
 15 17  1  0  0  0
 17 18  2  0  0  0
  7  2  1  0  0  0
 18 12  1  0  0  0
 28 19  1  0  0  0
 18  7  1  0  0  0
 28 23  1  0  0  0
 31 34  1  0  0  0
M  CHG 1  31   1
M  END
> <minimizedAffinity>
-7.97733

> <CNNscore>
0.3628401756

> <CNNaffinity>
6.4485116005

> <CNN_VS>
2.3397791386

> <CNNaffinity_variance>
0.0842220187

$$$$



 34 38  0  0  0  0  0  0  0  0999 V2000
   10.7457   -3.1343   26.0330 C   0  0  0  0  0  0  0  0  0  0  0  0
    9.3450   -2.7714   25.6372 C   0  0  0  0  0  0  0  0  0  0  0  0
    8.3356   -3.7230   26.2078 C   0  0  0  0  0  0  0  0  0  0  0  0
    6.9748   -3.2793   25.7589 N   0  0  0  0  0  0  0  0  0  0  0  0
    7.1433   -2.0535   24.9110 C   0  0  0  0  0  0  0  0  0  0  0  0
    6.0405   -1.2778   24.2537 O   0  0  0  0  0  0  0  0  0  0  0  0
    8.6081   -1.7396   24.8358 C   0  0  0  0  0  0  0  0  0  0  0  0
    7.7393   -0.7830   24.0742 C   0  0  0  0  0  0  0  0  0  0  0  0
    8.3586    0.3618   23.3285 N   0  0  0  0  0  0  0  0  0  0  0  0
    9.8466    0.5499   23.3443 C   0  0  0  0  0  0  0  0  0  0  0  0
   10.4659    1.6946   22.5986 O   0  0  0  0  0  0  0  0  0  0  0  0
   10.7155   -0.4068   24.1059 C   0  0  0  0  0  0  0  0  0  0  0  0
   12.2036   -0.2187   24.1217 C   0  0  0  0  0  0  0  0  0  0  0  0
   13.0723   -1.1753   24.8833 C   0  0  0  0  0  0  0  0  0  0  0  0
   12.4531   -2.3200   25.6290 C   0  0  0  0  0  0  0  0  0  0  0  0
   13.3220   -3.2767   26.3906 Cl  0  0  0  0  0  0  0  0  0  0  0  0
   10.9650   -2.5081   25.6132 C   0  0  0  0  0  0  0  0  0  0  0  0
   10.0963   -1.5515   24.8516 C   0  0  0  0  0  0  0  0  0  0  0  0
    5.6740   -3.9446   26.0984 C   0  0  0  0  0  0  0  0  0  0  0  0
    5.0814   -3.7789   27.4663 C   0  0  0  0  0  0  0  0  0  0  0  0
    3.7806   -4.4442   27.8058 N   0  0  0  0  0  0  0  0  0  0  0  0
    3.0724   -5.2751   26.7773 C   0  0  0  0  0  0  0  0  0  0  0  0
    3.6650   -5.4408   25.4093 C   0  0  0  0  0  0  0  0  0  0  0  0
    2.9567   -6.2718   24.3807 C   0  0  0  0  0  0  0  0  0  0  0  0
    3.5493   -6.4375   23.0128 C   0  0  0  0  0  0  0  0  0  0  0  0
    4.8501   -5.7722   22.6734 C   0  0  0  0  0  0  0  0  0  0  0  0
    5.5583   -4.9412   23.7019 C   0  0  0  0  0  0  0  0  0  0  0  0
    4.9658   -4.7755   25.0698 C   0  0  0  0  0  0  0  0  0  0  0  0
    7.4897    1.3184   22.5669 C   0  0  0  0  0  0  0  0  0  0  0  0
    8.0250    2.6608   22.1653 C   0  0  0  0  0  0  0  0  0  0  0  0
    7.1872    3.8902   22.3570 N   0  0  0  0  0  0  0  0  0  0  0  0
    7.6154    4.9447   23.3342 C   0  0  0  0  0  0  0  0  0  0  0  0
    5.9213    4.0652   21.5717 C   0  0  0  0  0  0  0  0  0  0  0  0
    6.6175    4.7262   22.4874 H   0  0  0  0  0  0  0  0  0  0  0  0
  2  1  1  0  0  0
  2  3  1  0  0  0
  3  4  1  0  0  0
  4 19  1  0  0  0
 19 20  2  0  0  0
 20 21  1  0  0  0
 21 22  2  0  0  0
 22 23  1  0  0  0
 23 24  2  0  0  0
 24 25  1  0  0  0
 25 26  2  0  0  0
 26 27  1  0  0  0
 27 28  2  0  0  0
  4  5  1  0  0  0
  5  6  2  0  0  0
  5  7  1  0  0  0
  7  8  1  0  0  0
  8  9  1  0  0  0
  9 29  1  0  0  0
 29 30  1  0  0  0
 30 31  1  0  0  0
 31 32  1  0  0  0
 31 33  1  0  0  0
  9 10  1  0  0  0
 10 11  2  0  0  0
 10 12  1  0  0  0
 12 13  2  0  0  0
 13 14  1  0  0  0
 14 15  2  0  0  0
 15 16  1  0  0  0
 15 17  1  0  0  0
 17 18  2  0  0  0
  7  2  1  0  0  0
 18 12  1  0  0  0
 28 19  1  0  0  0
 18  7  1  0  0  0
 28 23  1  0  0  0
 31 34  1  0  0  0
M  CHG 1  31   1
M  END
> <minimizedAffinity>
-7.65145

> <CNNscore>
0.3543070555

> <CNNaffinity>
6.4012503624

> <CNN_VS>
2.2680082321

> <CNNaffinity_variance>
0.2080770284

$$$$
