


 21 23  0  0  0  0  0  0  0  0999 V2000
    7.0870   -0.3527   21.2545 C   0  0  0  0  0  0  0  0  0  0  0  0
   12.6050   -1.1220   25.1314 C   0  0  0  0  0  0  0  0  0  0  0  0
   11.3096   -1.4509   24.4503 C   0  0  0  0  0  0  0  0  0  0  0  0
   11.5521   -2.7368   25.1837 C   0  0  0  0  0  0  0  0  0  0  0  0
   10.0984   -2.2264   24.0240 C   0  0  0  0  0  0  0  0  0  0  0  0
    9.0946   -1.6018   23.1009 C   0  0  0  0  0  0  0  0  0  0  0  0
    9.3019   -0.2018   22.6040 N   0  0  0  0  0  0  0  0  0  0  0  0
    8.2981    0.4228   21.6808 C   0  0  0  0  0  0  0  0  0  0  0  0
    8.5055    1.8229   21.1839 O   0  0  0  0  0  0  0  0  0  0  0  0
   10.5131    0.5737   23.0303 C   0  0  0  0  0  0  0  0  0  0  0  0
   11.5169   -0.0508   23.9535 C   0  0  0  0  0  0  0  0  0  0  0  0
    6.2470    0.1365   20.1121 C   0  0  0  0  0  0  0  0  0  0  0  0
    6.6810   -0.1184   18.6991 C   0  0  0  0  0  0  0  0  0  0  0  0
    5.8410    0.3707   17.5566 N   0  0  0  0  0  0  0  0  0  0  0  0
    4.5671    1.1149   17.8272 C   0  0  0  0  0  0  0  0  0  0  0  0
    4.1330    1.3698   19.2402 C   0  0  0  0  0  0  0  0  0  0  0  0
    2.8590    2.1139   19.5108 C   0  0  0  0  0  0  0  0  0  0  0  0
    2.4250    2.3689   20.9238 C   0  0  0  0  0  0  0  0  0  0  0  0
    3.2650    1.8797   22.0662 C   0  0  0  0  0  0  0  0  0  0  0  0
    4.5390    1.1356   21.7957 C   0  0  0  0  0  0  0  0  0  0  0  0
    4.9730    0.8806   20.3827 C   0  0  0  0  0  0  0  0  0  0  0  0
  2  3  1  0  0  0
  3  4  1  0  0  0
  3  5  1  0  0  0
  5  6  1  0  0  0
  6  7  1  0  0  0
  7  8  1  0  0  0
  8  9  2  0  0  0
  8  1  1  0  0  0
  1 12  1  0  0  0
 12 13  2  0  0  0
 13 14  1  0  0  0
 14 15  2  0  0  0
 15 16  1  0  0  0
 16 17  2  0  0  0
 17 18  1  0  0  0
 18 19  2  0  0  0
 19 20  1  0  0  0
 20 21  2  0  0  0
  7 10  1  0  0  0
 10 11  1  0  0  0
 11  3  1  0  0  0
 21 12  1  0  0  0
 21 16  1  0  0  0
M  END
> <minimizedAffinity>
-7.45383

> <CNNscore>
0.7809520364

> <CNNaffinity>
5.5373077393

> <CNN_VS>
4.3243718147

> <CNNaffinity_variance>
0.0917343870

$$$$



 21 23  0  0  0  0  0  0  0  0999 V2000
    8.9705   -2.7021   23.2462 C   0  0  0  0  0  0  0  0  0  0  0  0
    4.4940   -1.9192   28.2879 C   0  0  0  0  0  0  0  0  0  0  0  0
    5.7136   -2.3904   27.5527 C   0  0  0  0  0  0  0  0  0  0  0  0
    5.9316   -3.0620   28.8761 C   0  0  0  0  0  0  0  0  0  0  0  0
    7.0090   -3.0947   27.2771 C   0  0  0  0  0  0  0  0  0  0  0  0
    7.6628   -2.9638   25.9335 C   0  0  0  0  0  0  0  0  0  0  0  0
    7.0213   -2.1286   24.8654 N   0  0  0  0  0  0  0  0  0  0  0  0
    7.6752   -1.9977   23.5218 C   0  0  0  0  0  0  0  0  0  0  0  0
    7.0336   -1.1624   22.4537 O   0  0  0  0  0  0  0  0  0  0  0  0
    5.7259   -1.4242   25.1410 C   0  0  0  0  0  0  0  0  0  0  0  0
    5.0721   -1.5551   26.4846 C   0  0  0  0  0  0  0  0  0  0  0  0
   10.2650   -1.9481   23.3215 C   0  0  0  0  0  0  0  0  0  0  0  0
   10.5700   -0.8790   22.3146 C   0  0  0  0  0  0  0  0  0  0  0  0
   11.8645   -0.1250   22.3899 N   0  0  0  0  0  0  0  0  0  0  0  0
   12.8541   -0.4401   23.4722 C   0  0  0  0  0  0  0  0  0  0  0  0
   12.5491   -1.5092   24.4793 C   0  0  0  0  0  0  0  0  0  0  0  0
   13.5387   -1.8242   25.5616 C   0  0  0  0  0  0  0  0  0  0  0  0
   13.2337   -2.8933   26.5686 C   0  0  0  0  0  0  0  0  0  0  0  0
   11.9392   -3.6473   26.4932 C   0  0  0  0  0  0  0  0  0  0  0  0
   10.9496   -3.3322   25.4109 C   0  0  0  0  0  0  0  0  0  0  0  0
   11.2546   -2.2632   24.4039 C   0  0  0  0  0  0  0  0  0  0  0  0
  2  3  1  0  0  0
  3  4  1  0  0  0
  3  5  1  0  0  0
  5  6  1  0  0  0
  6  7  1  0  0  0
  7  8  1  0  0  0
  8  9  2  0  0  0
  8  1  1  0  0  0
  1 12  1  0  0  0
 12 13  2  0  0  0
 13 14  1  0  0  0
 14 15  2  0  0  0
 15 16  1  0  0  0
 16 17  2  0  0  0
 17 18  1  0  0  0
 18 19  2  0  0  0
 19 20  1  0  0  0
 20 21  2  0  0  0
  7 10  1  0  0  0
 10 11  1  0  0  0
 11  3  1  0  0  0
 21 12  1  0  0  0
 21 16  1  0  0  0
M  END
> <minimizedAffinity>
-6.53257

> <CNNscore>
0.7712211609

> <CNNaffinity>
5.6781201363

> <CNN_VS>
4.3790864944

> <CNNaffinity_variance>
0.1012700349

$$$$



 21 23  0  0  0  0  0  0  0  0999 V2000
    9.0189   -2.6834   23.1622 C   0  0  0  0  0  0  0  0  0  0  0  0
    5.6036    1.0576   27.6801 C   0  0  0  0  0  0  0  0  0  0  0  0
    6.4813    0.7221   26.5108 C   0  0  0  0  0  0  0  0  0  0  0  0
    6.5176    2.2201   26.4425 C   0  0  0  0  0  0  0  0  0  0  0  0
    7.3715    0.9068   25.3179 C   0  0  0  0  0  0  0  0  0  0  0  0
    7.9206   -0.2899   24.5993 C   0  0  0  0  0  0  0  0  0  0  0  0
    7.5795   -1.6714   25.0738 N   0  0  0  0  0  0  0  0  0  0  0  0
    8.1286   -2.8681   24.3552 C   0  0  0  0  0  0  0  0  0  0  0  0
    7.7874   -4.2496   24.8297 O   0  0  0  0  0  0  0  0  0  0  0  0
    6.6892   -1.8562   26.2668 C   0  0  0  0  0  0  0  0  0  0  0  0
    6.1401   -0.6594   26.9854 C   0  0  0  0  0  0  0  0  0  0  0  0
   10.3001   -1.9147   23.2944 C   0  0  0  0  0  0  0  0  0  0  0  0
   10.6180   -0.8144   22.3257 C   0  0  0  0  0  0  0  0  0  0  0  0
   11.8992   -0.0457   22.4579 N   0  0  0  0  0  0  0  0  0  0  0  0
   12.8627   -0.3773   23.5587 C   0  0  0  0  0  0  0  0  0  0  0  0
   12.5448   -1.4776   24.5274 C   0  0  0  0  0  0  0  0  0  0  0  0
   13.5083   -1.8091   25.6283 C   0  0  0  0  0  0  0  0  0  0  0  0
   13.1904   -2.9093   26.5969 C   0  0  0  0  0  0  0  0  0  0  0  0
   11.9092   -3.6781   26.4648 C   0  0  0  0  0  0  0  0  0  0  0  0
   10.9457   -3.3465   25.3640 C   0  0  0  0  0  0  0  0  0  0  0  0
   11.2636   -2.2463   24.3953 C   0  0  0  0  0  0  0  0  0  0  0  0
  2  3  1  0  0  0
  3  4  1  0  0  0
  3  5  1  0  0  0
  5  6  1  0  0  0
  6  7  1  0  0  0
  7  8  1  0  0  0
  8  9  2  0  0  0
  8  1  1  0  0  0
  1 12  1  0  0  0
 12 13  2  0  0  0
 13 14  1  0  0  0
 14 15  2  0  0  0
 15 16  1  0  0  0
 16 17  2  0  0  0
 17 18  1  0  0  0
 18 19  2  0  0  0
 19 20  1  0  0  0
 20 21  2  0  0  0
  7 10  1  0  0  0
 10 11  1  0  0  0
 11  3  1  0  0  0
 21 12  1  0  0  0
 21 16  1  0  0  0
M  END
> <minimizedAffinity>
-6.55825

> <CNNscore>
0.7114201784

> <CNNaffinity>
5.4715948105

> <CNN_VS>
3.8926029205

> <CNNaffinity_variance>
0.0959571227

$$$$



 21 23  0  0  0  0  0  0  0  0999 V2000
    7.7772    0.2557   21.1494 C   0  0  0  0  0  0  0  0  0  0  0  0
   11.9002   -2.8433   25.5617 C   0  0  0  0  0  0  0  0  0  0  0  0
   11.4003   -1.8172   24.5884 C   0  0  0  0  0  0  0  0  0  0  0  0
   12.7316   -1.2198   24.9360 C   0  0  0  0  0  0  0  0  0  0  0  0
   11.3627   -0.5837   23.7358 C   0  0  0  0  0  0  0  0  0  0  0  0
   10.1676   -0.3039   22.8737 C   0  0  0  0  0  0  0  0  0  0  0  0
    9.0099   -1.2577   22.8641 N   0  0  0  0  0  0  0  0  0  0  0  0
    7.8147   -0.9779   22.0020 C   0  0  0  0  0  0  0  0  0  0  0  0
    6.6571   -1.9317   21.9925 O   0  0  0  0  0  0  0  0  0  0  0  0
    9.0474   -2.4913   23.7167 C   0  0  0  0  0  0  0  0  0  0  0  0
   10.2426   -2.7711   24.5789 C   0  0  0  0  0  0  0  0  0  0  0  0
    6.7423    0.3916   20.0722 C   0  0  0  0  0  0  0  0  0  0  0  0
    6.8296   -0.4550   18.8371 C   0  0  0  0  0  0  0  0  0  0  0  0
    5.7946   -0.3190   17.7599 N   0  0  0  0  0  0  0  0  0  0  0  0
    4.6724    0.6636   17.9178 C   0  0  0  0  0  0  0  0  0  0  0  0
    4.5850    1.5103   19.1529 C   0  0  0  0  0  0  0  0  0  0  0  0
    3.4628    2.4929   19.3108 C   0  0  0  0  0  0  0  0  0  0  0  0
    3.3755    3.3395   20.5460 C   0  0  0  0  0  0  0  0  0  0  0  0
    4.4104    3.2035   21.6232 C   0  0  0  0  0  0  0  0  0  0  0  0
    5.5327    2.2209   21.4653 C   0  0  0  0  0  0  0  0  0  0  0  0
    5.6200    1.3743   20.2302 C   0  0  0  0  0  0  0  0  0  0  0  0
  2  3  1  0  0  0
  3  4  1  0  0  0
  3  5  1  0  0  0
  5  6  1  0  0  0
  6  7  1  0  0  0
  7  8  1  0  0  0
  8  9  2  0  0  0
  8  1  1  0  0  0
  1 12  1  0  0  0
 12 13  2  0  0  0
 13 14  1  0  0  0
 14 15  2  0  0  0
 15 16  1  0  0  0
 16 17  2  0  0  0
 17 18  1  0  0  0
 18 19  2  0  0  0
 19 20  1  0  0  0
 20 21  2  0  0  0
  7 10  1  0  0  0
 10 11  1  0  0  0
 11  3  1  0  0  0
 21 12  1  0  0  0
 21 16  1  0  0  0
M  END
> <minimizedAffinity>
-7.35734

> <CNNscore>
0.6762816310

> <CNNaffinity>
5.3928022385

> <CNN_VS>
3.6470530033

> <CNNaffinity_variance>
0.0559565015

$$$$



 21 23  0  0  0  0  0  0  0  0999 V2000
    8.3710   -0.8034   24.9179 C   0  0  0  0  0  0  0  0  0  0  0  0
    5.5744   -6.2411   21.9715 C   0  0  0  0  0  0  0  0  0  0  0  0
    6.4567   -5.4301   22.8737 C   0  0  0  0  0  0  0  0  0  0  0  0
    6.8886   -6.8133   23.2615 C   0  0  0  0  0  0  0  0  0  0  0  0
    7.4890   -5.0996   23.9106 C   0  0  0  0  0  0  0  0  0  0  0  0
    7.7830   -3.6675   24.2464 C   0  0  0  0  0  0  0  0  0  0  0  0
    7.0447   -2.5660   23.5453 N   0  0  0  0  0  0  0  0  0  0  0  0
    7.3387   -1.1339   23.8811 C   0  0  0  0  0  0  0  0  0  0  0  0
    6.6004   -0.0324   23.1799 O   0  0  0  0  0  0  0  0  0  0  0  0
    6.0124   -2.8965   22.5084 C   0  0  0  0  0  0  0  0  0  0  0  0
    5.7184   -4.3286   22.1726 C   0  0  0  0  0  0  0  0  0  0  0  0
    9.7837   -0.5149   24.5045 C   0  0  0  0  0  0  0  0  0  0  0  0
   10.0675    0.5746   23.5134 C   0  0  0  0  0  0  0  0  0  0  0  0
   11.4802    0.8631   23.0999 N   0  0  0  0  0  0  0  0  0  0  0  0
   12.6092    0.0622   23.6776 C   0  0  0  0  0  0  0  0  0  0  0  0
   12.3254   -1.0274   24.6689 C   0  0  0  0  0  0  0  0  0  0  0  0
   13.4544   -1.8284   25.2466 C   0  0  0  0  0  0  0  0  0  0  0  0
   13.1706   -2.9179   26.2377 C   0  0  0  0  0  0  0  0  0  0  0  0
   11.7579   -3.2064   26.6511 C   0  0  0  0  0  0  0  0  0  0  0  0
   10.6289   -2.4054   26.0734 C   0  0  0  0  0  0  0  0  0  0  0  0
   10.9127   -1.3159   25.0823 C   0  0  0  0  0  0  0  0  0  0  0  0
  2  3  1  0  0  0
  3  4  1  0  0  0
  3  5  1  0  0  0
  5  6  1  0  0  0
  6  7  1  0  0  0
  7  8  1  0  0  0
  8  9  2  0  0  0
  8  1  1  0  0  0
  1 12  1  0  0  0
 12 13  2  0  0  0
 13 14  1  0  0  0
 14 15  2  0  0  0
 15 16  1  0  0  0
 16 17  2  0  0  0
 17 18  1  0  0  0
 18 19  2  0  0  0
 19 20  1  0  0  0
 20 21  2  0  0  0
  7 10  1  0  0  0
 10 11  1  0  0  0
 11  3  1  0  0  0
 21 12  1  0  0  0
 21 16  1  0  0  0
M  END
> <minimizedAffinity>
-7.16366

> <CNNscore>
0.6468240023

> <CNNaffinity>
5.5180401802

> <CNN_VS>
3.5692007542

> <CNNaffinity_variance>
0.1564020813

$$$$



 21 23  0  0  0  0  0  0  0  0999 V2000
    8.2771   -1.4726   25.7289 C   0  0  0  0  0  0  0  0  0  0  0  0
    5.9023   -6.4074   21.7192 C   0  0  0  0  0  0  0  0  0  0  0  0
    6.6547   -5.7430   22.8338 C   0  0  0  0  0  0  0  0  0  0  0  0
    7.0293   -7.1739   23.0835 C   0  0  0  0  0  0  0  0  0  0  0  0
    7.5372   -5.5755   24.0351 C   0  0  0  0  0  0  0  0  0  0  0  0
    7.7838   -4.2079   24.5997 C   0  0  0  0  0  0  0  0  0  0  0  0
    7.1481   -3.0077   23.9630 N   0  0  0  0  0  0  0  0  0  0  0  0
    7.3947   -1.6401   24.5276 C   0  0  0  0  0  0  0  0  0  0  0  0
    6.7589   -0.4400   23.8908 O   0  0  0  0  0  0  0  0  0  0  0  0
    6.2656   -3.1752   22.7616 C   0  0  0  0  0  0  0  0  0  0  0  0
    6.0189   -4.5428   22.1970 C   0  0  0  0  0  0  0  0  0  0  0  0
    9.7335   -1.8219   25.6444 C   0  0  0  0  0  0  0  0  0  0  0  0
   10.2765   -2.9715   26.4401 C   0  0  0  0  0  0  0  0  0  0  0  0
   11.7328   -3.3208   26.3556 N   0  0  0  0  0  0  0  0  0  0  0  0
   12.6461   -2.5203   25.4752 C   0  0  0  0  0  0  0  0  0  0  0  0
   12.1031   -1.3706   24.6793 C   0  0  0  0  0  0  0  0  0  0  0  0
   13.0164   -0.5702   23.7990 C   0  0  0  0  0  0  0  0  0  0  0  0
   12.4734    0.5795   23.0032 C   0  0  0  0  0  0  0  0  0  0  0  0
   11.0171    0.9288   23.0878 C   0  0  0  0  0  0  0  0  0  0  0  0
   10.1038    0.1283   23.9681 C   0  0  0  0  0  0  0  0  0  0  0  0
   10.6468   -1.0213   24.7639 C   0  0  0  0  0  0  0  0  0  0  0  0
  2  3  1  0  0  0
  3  4  1  0  0  0
  3  5  1  0  0  0
  5  6  1  0  0  0
  6  7  1  0  0  0
  7  8  1  0  0  0
  8  9  2  0  0  0
  8  1  1  0  0  0
  1 12  1  0  0  0
 12 13  2  0  0  0
 13 14  1  0  0  0
 14 15  2  0  0  0
 15 16  1  0  0  0
 16 17  2  0  0  0
 17 18  1  0  0  0
 18 19  2  0  0  0
 19 20  1  0  0  0
 20 21  2  0  0  0
  7 10  1  0  0  0
 10 11  1  0  0  0
 11  3  1  0  0  0
 21 12  1  0  0  0
 21 16  1  0  0  0
M  END
> <minimizedAffinity>
-6.91635

> <CNNscore>
0.6446018219

> <CNNaffinity>
5.6083312035

> <CNN_VS>
3.6151404381

> <CNNaffinity_variance>
0.0675181970

$$$$



 21 23  0  0  0  0  0  0  0  0999 V2000
    9.2616   -1.8894   22.3060 C   0  0  0  0  0  0  0  0  0  0  0  0
    5.7598    2.9615   25.5117 C   0  0  0  0  0  0  0  0  0  0  0  0
    6.6258    1.7531   25.3118 C   0  0  0  0  0  0  0  0  0  0  0  0
    6.5796    1.7953   26.8105 C   0  0  0  0  0  0  0  0  0  0  0  0
    7.4756    0.5594   25.6322 C   0  0  0  0  0  0  0  0  0  0  0  0
    8.0710   -0.2568   24.5235 C   0  0  0  0  0  0  0  0  0  0  0  0
    7.8164    0.1206   23.0943 N   0  0  0  0  0  0  0  0  0  0  0  0
    8.4117   -0.6957   21.9856 C   0  0  0  0  0  0  0  0  0  0  0  0
    8.1572   -0.3182   20.5563 O   0  0  0  0  0  0  0  0  0  0  0  0
    6.9665    1.3143   22.7737 C   0  0  0  0  0  0  0  0  0  0  0  0
    6.3712    2.1306   23.8825 C   0  0  0  0  0  0  0  0  0  0  0  0
   10.5590   -1.7117   23.0377 C   0  0  0  0  0  0  0  0  0  0  0  0
   11.5834   -0.7441   22.5237 C   0  0  0  0  0  0  0  0  0  0  0  0
   12.8808   -0.5664   23.2554 N   0  0  0  0  0  0  0  0  0  0  0  0
   13.1537   -1.3564   24.5009 C   0  0  0  0  0  0  0  0  0  0  0  0
   12.1293   -2.3241   25.0149 C   0  0  0  0  0  0  0  0  0  0  0  0
   12.4022   -3.1141   26.2604 C   0  0  0  0  0  0  0  0  0  0  0  0
   11.3778   -4.0817   26.7743 C   0  0  0  0  0  0  0  0  0  0  0  0
   10.0804   -4.2594   26.0427 C   0  0  0  0  0  0  0  0  0  0  0  0
    9.8075   -3.4694   24.7972 C   0  0  0  0  0  0  0  0  0  0  0  0
   10.8319   -2.5018   24.2833 C   0  0  0  0  0  0  0  0  0  0  0  0
  2  3  1  0  0  0
  3  4  1  0  0  0
  3  5  1  0  0  0
  5  6  1  0  0  0
  6  7  1  0  0  0
  7  8  1  0  0  0
  8  9  2  0  0  0
  8  1  1  0  0  0
  1 12  1  0  0  0
 12 13  2  0  0  0
 13 14  1  0  0  0
 14 15  2  0  0  0
 15 16  1  0  0  0
 16 17  2  0  0  0
 17 18  1  0  0  0
 18 19  2  0  0  0
 19 20  1  0  0  0
 20 21  2  0  0  0
  7 10  1  0  0  0
 10 11  1  0  0  0
 11  3  1  0  0  0
 21 12  1  0  0  0
 21 16  1  0  0  0
M  END
> <minimizedAffinity>
-6.54347

> <CNNscore>
0.6402637959

> <CNNaffinity>
5.4489197731

> <CNN_VS>
3.4887461662

> <CNNaffinity_variance>
0.0273089316

$$$$



 21 23  0  0  0  0  0  0  0  0999 V2000
    9.7799   -1.7476   22.3724 C   0  0  0  0  0  0  0  0  0  0  0  0
   10.4960    4.9796   22.9223 C   0  0  0  0  0  0  0  0  0  0  0  0
   10.8642    3.5258   22.8868 C   0  0  0  0  0  0  0  0  0  0  0  0
   12.2134    4.1301   23.1409 C   0  0  0  0  0  0  0  0  0  0  0  0
   11.7009    2.2820   22.9395 C   0  0  0  0  0  0  0  0  0  0  0  0
   11.0606    0.9388   22.7505 C   0  0  0  0  0  0  0  0  0  0  0  0
    9.5835    0.8394   22.5088 N   0  0  0  0  0  0  0  0  0  0  0  0
    8.9432   -0.5038   22.3197 C   0  0  0  0  0  0  0  0  0  0  0  0
    7.4661   -0.6032   22.0780 O   0  0  0  0  0  0  0  0  0  0  0  0
    8.7468    2.0832   22.4560 C   0  0  0  0  0  0  0  0  0  0  0  0
    9.3871    3.4265   22.6451 C   0  0  0  0  0  0  0  0  0  0  0  0
    9.7892   -2.5934   23.6112 C   0  0  0  0  0  0  0  0  0  0  0  0
    8.5828   -3.4086   23.9718 C   0  0  0  0  0  0  0  0  0  0  0  0
    8.5920   -4.2543   25.2106 N   0  0  0  0  0  0  0  0  0  0  0  0
    9.8077   -4.2850   26.0888 C   0  0  0  0  0  0  0  0  0  0  0  0
   11.0141   -3.4698   25.7282 C   0  0  0  0  0  0  0  0  0  0  0  0
   12.2298   -3.5004   26.6063 C   0  0  0  0  0  0  0  0  0  0  0  0
   13.4362   -2.6852   26.2457 C   0  0  0  0  0  0  0  0  0  0  0  0
   13.4269   -1.8395   25.0069 C   0  0  0  0  0  0  0  0  0  0  0  0
   12.2113   -1.8089   24.1288 C   0  0  0  0  0  0  0  0  0  0  0  0
   11.0049   -2.6240   24.4894 C   0  0  0  0  0  0  0  0  0  0  0  0
  2  3  1  0  0  0
  3  4  1  0  0  0
  3  5  1  0  0  0
  5  6  1  0  0  0
  6  7  1  0  0  0
  7  8  1  0  0  0
  8  9  2  0  0  0
  8  1  1  0  0  0
  1 12  1  0  0  0
 12 13  2  0  0  0
 13 14  1  0  0  0
 14 15  2  0  0  0
 15 16  1  0  0  0
 16 17  2  0  0  0
 17 18  1  0  0  0
 18 19  2  0  0  0
 19 20  1  0  0  0
 20 21  2  0  0  0
  7 10  1  0  0  0
 10 11  1  0  0  0
 11  3  1  0  0  0
 21 12  1  0  0  0
 21 16  1  0  0  0
M  END
> <minimizedAffinity>
-7.22305

> <CNNscore>
0.6040166616

> <CNNaffinity>
5.5210719109

> <CNN_VS>
3.3348193169

> <CNNaffinity_variance>
0.0965132713

$$$$



 21 23  0  0  0  0  0  0  0  0999 V2000
   11.1801   -1.3253   22.6047 C   0  0  0  0  0  0  0  0  0  0  0  0
    5.5550    1.9614   20.7004 C   0  0  0  0  0  0  0  0  0  0  0  0
    6.5163    0.8302   20.9156 C   0  0  0  0  0  0  0  0  0  0  0  0
    5.3863    0.0911   20.2621 C   0  0  0  0  0  0  0  0  0  0  0  0
    7.0852   -0.5576   20.9038 C   0  0  0  0  0  0  0  0  0  0  0  0
    8.4501   -0.8135   21.4708 C   0  0  0  0  0  0  0  0  0  0  0  0
    9.2462    0.3184   22.0495 N   0  0  0  0  0  0  0  0  0  0  0  0
   10.6112    0.0625   22.6164 C   0  0  0  0  0  0  0  0  0  0  0  0
   11.4072    1.1946   23.1951 O   0  0  0  0  0  0  0  0  0  0  0  0
    8.6773    1.7064   22.0612 C   0  0  0  0  0  0  0  0  0  0  0  0
    7.3124    1.9623   21.4943 C   0  0  0  0  0  0  0  0  0  0  0  0
   11.7522   -1.9120   23.8610 C   0  0  0  0  0  0  0  0  0  0  0  0
   13.2342   -1.8909   24.0915 C   0  0  0  0  0  0  0  0  0  0  0  0
   13.8063   -2.4776   25.3478 N   0  0  0  0  0  0  0  0  0  0  0  0
   12.8965   -3.0855   26.3737 C   0  0  0  0  0  0  0  0  0  0  0  0
   11.4144   -3.1066   26.1433 C   0  0  0  0  0  0  0  0  0  0  0  0
   10.5045   -3.7145   27.1693 C   0  0  0  0  0  0  0  0  0  0  0  0
    9.0225   -3.7357   26.9388 C   0  0  0  0  0  0  0  0  0  0  0  0
    8.4503   -3.1490   25.6825 C   0  0  0  0  0  0  0  0  0  0  0  0
    9.3602   -2.5411   24.6565 C   0  0  0  0  0  0  0  0  0  0  0  0
   10.8422   -2.5199   24.8870 C   0  0  0  0  0  0  0  0  0  0  0  0
  2  3  1  0  0  0
  3  4  1  0  0  0
  3  5  1  0  0  0
  5  6  1  0  0  0
  6  7  1  0  0  0
  7  8  1  0  0  0
  8  9  2  0  0  0
  8  1  1  0  0  0
  1 12  1  0  0  0
 12 13  2  0  0  0
 13 14  1  0  0  0
 14 15  2  0  0  0
 15 16  1  0  0  0
 16 17  2  0  0  0
 17 18  1  0  0  0
 18 19  2  0  0  0
 19 20  1  0  0  0
 20 21  2  0  0  0
  7 10  1  0  0  0
 10 11  1  0  0  0
 11  3  1  0  0  0
 21 12  1  0  0  0
 21 16  1  0  0  0
M  END
> <minimizedAffinity>
-7.15586

> <CNNscore>
0.5780729055

> <CNNaffinity>
5.3442873955

> <CNN_VS>
3.0893876553

> <CNNaffinity_variance>
0.2135586739

$$$$
