


 21 23  0  0  0  0  0  0  0  0999 V2000
   -6.6507   -1.7625  -21.7662 C   0  0  0  0  0  0  0  0  0  0  0  0
   -8.8119   -7.0049  -25.4967 C   0  0  0  0  0  0  0  0  0  0  0  0
   -8.7033   -5.6034  -24.9730 C   0  0  0  0  0  0  0  0  0  0  0  0
   -9.7782   -5.4144  -26.0020 C   0  0  0  0  0  0  0  0  0  0  0  0
   -8.9680   -4.1364  -24.8066 C   0  0  0  0  0  0  0  0  0  0  0  0
   -8.1955   -3.3451  -23.7932 C   0  0  0  0  0  0  0  0  0  0  0  0
   -7.1584   -4.0208  -22.9460 N   0  0  0  0  0  0  0  0  0  0  0  0
   -6.3860   -3.2295  -21.9325 C   0  0  0  0  0  0  0  0  0  0  0  0
   -5.3488   -3.9053  -21.0853 O   0  0  0  0  0  0  0  0  0  0  0  0
   -6.8937   -5.4879  -23.1123 C   0  0  0  0  0  0  0  0  0  0  0  0
   -7.6661   -6.2792  -24.1258 C   0  0  0  0  0  0  0  0  0  0  0  0
   -6.1241   -1.0370  -20.5635 C   0  0  0  0  0  0  0  0  0  0  0  0
   -6.8061   -1.1911  -19.2365 C   0  0  0  0  0  0  0  0  0  0  0  0
   -6.2795   -0.4655  -18.0339 N   0  0  0  0  0  0  0  0  0  0  0  0
   -5.0709    0.4141  -18.1583 C   0  0  0  0  0  0  0  0  0  0  0  0
   -4.3888    0.5682  -19.4854 C   0  0  0  0  0  0  0  0  0  0  0  0
   -3.1802    1.4478  -19.6098 C   0  0  0  0  0  0  0  0  0  0  0  0
   -2.4982    1.6019  -20.9368 C   0  0  0  0  0  0  0  0  0  0  0  0
   -3.0248    0.8764  -22.1394 C   0  0  0  0  0  0  0  0  0  0  0  0
   -4.2334   -0.0032  -22.0150 C   0  0  0  0  0  0  0  0  0  0  0  0
   -4.9154   -0.1573  -20.6880 C   0  0  0  0  0  0  0  0  0  0  0  0
  2  3  1  0  0  0
  3  4  1  0  0  0
  3  5  1  0  0  0
  5  6  1  0  0  0
  6  7  1  0  0  0
  7  8  1  0  0  0
  8  9  2  0  0  0
  8  1  1  0  0  0
  1 12  1  0  0  0
 12 13  2  0  0  0
 13 14  1  0  0  0
 14 15  2  0  0  0
 15 16  1  0  0  0
 16 17  2  0  0  0
 17 18  1  0  0  0
 18 19  2  0  0  0
 19 20  1  0  0  0
 20 21  2  0  0  0
  7 10  1  0  0  0
 10 11  1  0  0  0
 11  3  1  0  0  0
 21 12  1  0  0  0
 21 16  1  0  0  0
M  END
> <minimizedAffinity>
-7.24028

> <CNNscore>
0.7131581306

> <CNNaffinity>
5.2024393082

> <CNN_VS>
3.7101619244

> <CNNaffinity_variance>
0.3934499919

$$$$



 21 23  0  0  0  0  0  0  0  0999 V2000
   -6.1123   -2.5811  -21.5174 C   0  0  0  0  0  0  0  0  0  0  0  0
  -10.0815   -5.6824  -26.0670 C   0  0  0  0  0  0  0  0  0  0  0  0
   -8.9147   -5.4359  -25.1571 C   0  0  0  0  0  0  0  0  0  0  0  0
   -8.5118   -6.7555  -25.7456 C   0  0  0  0  0  0  0  0  0  0  0  0
   -7.6080   -5.6476  -24.4516 C   0  0  0  0  0  0  0  0  0  0  0  0
   -7.1094   -4.6255  -23.4735 C   0  0  0  0  0  0  0  0  0  0  0  0
   -7.9175   -3.3915  -23.2010 N   0  0  0  0  0  0  0  0  0  0  0  0
   -7.4189   -2.3694  -22.2229 C   0  0  0  0  0  0  0  0  0  0  0  0
   -8.2271   -1.1354  -21.9503 O   0  0  0  0  0  0  0  0  0  0  0  0
   -9.2243   -3.1797  -23.9064 C   0  0  0  0  0  0  0  0  0  0  0  0
   -9.7228   -4.2019  -24.8845 C   0  0  0  0  0  0  0  0  0  0  0  0
   -5.6928   -1.6488  -20.4198 C   0  0  0  0  0  0  0  0  0  0  0  0
   -6.1571   -1.8887  -19.0138 C   0  0  0  0  0  0  0  0  0  0  0  0
   -5.7377   -0.9564  -17.9161 N   0  0  0  0  0  0  0  0  0  0  0  0
   -4.8540    0.2158  -18.2244 C   0  0  0  0  0  0  0  0  0  0  0  0
   -4.3897    0.4557  -19.6305 C   0  0  0  0  0  0  0  0  0  0  0  0
   -3.5060    1.6278  -19.9388 C   0  0  0  0  0  0  0  0  0  0  0  0
   -3.0417    1.8677  -21.3448 C   0  0  0  0  0  0  0  0  0  0  0  0
   -3.4611    0.9354  -22.4425 C   0  0  0  0  0  0  0  0  0  0  0  0
   -4.3448   -0.2368  -22.1342 C   0  0  0  0  0  0  0  0  0  0  0  0
   -4.8091   -0.4766  -20.7282 C   0  0  0  0  0  0  0  0  0  0  0  0
  2  3  1  0  0  0
  3  4  1  0  0  0
  3  5  1  0  0  0
  5  6  1  0  0  0
  6  7  1  0  0  0
  7  8  1  0  0  0
  8  9  2  0  0  0
  8  1  1  0  0  0
  1 12  1  0  0  0
 12 13  2  0  0  0
 13 14  1  0  0  0
 14 15  2  0  0  0
 15 16  1  0  0  0
 16 17  2  0  0  0
 17 18  1  0  0  0
 18 19  2  0  0  0
 19 20  1  0  0  0
 20 21  2  0  0  0
  7 10  1  0  0  0
 10 11  1  0  0  0
 11  3  1  0  0  0
 21 12  1  0  0  0
 21 16  1  0  0  0
M  END
> <minimizedAffinity>
-7.01172

> <CNNscore>
0.6766017675

> <CNNaffinity>
5.1041450500

> <CNN_VS>
3.4534735680

> <CNNaffinity_variance>
0.3141607344

$$$$



 21 23  0  0  0  0  0  0  0  0999 V2000
   -6.1060   -1.4167  -20.5510 C   0  0  0  0  0  0  0  0  0  0  0  0
   -6.5312   -6.8334  -24.6191 C   0  0  0  0  0  0  0  0  0  0  0  0
   -6.6888   -5.4209  -24.1395 C   0  0  0  0  0  0  0  0  0  0  0  0
   -7.3400   -5.3128  -25.4865 C   0  0  0  0  0  0  0  0  0  0  0  0
   -7.0725   -3.9709  -24.1276 C   0  0  0  0  0  0  0  0  0  0  0  0
   -6.7503   -3.1195  -22.9354 C   0  0  0  0  0  0  0  0  0  0  0  0
   -6.0444   -3.7181  -21.7550 N   0  0  0  0  0  0  0  0  0  0  0  0
   -5.7223   -2.8668  -20.5628 C   0  0  0  0  0  0  0  0  0  0  0  0
   -5.0164   -3.4655  -19.3824 O   0  0  0  0  0  0  0  0  0  0  0  0
   -5.6607   -5.1682  -21.7668 C   0  0  0  0  0  0  0  0  0  0  0  0
   -5.9829   -6.0196  -22.9590 C   0  0  0  0  0  0  0  0  0  0  0  0
   -5.0534   -0.3638  -20.3684 C   0  0  0  0  0  0  0  0  0  0  0  0
   -4.8171    0.2333  -19.0128 C   0  0  0  0  0  0  0  0  0  0  0  0
   -3.7645    1.2862  -18.8302 N   0  0  0  0  0  0  0  0  0  0  0  0
   -2.9481    1.7420  -20.0031 C   0  0  0  0  0  0  0  0  0  0  0  0
   -3.1844    1.1449  -21.3587 C   0  0  0  0  0  0  0  0  0  0  0  0
   -2.3680    1.6007  -22.5316 C   0  0  0  0  0  0  0  0  0  0  0  0
   -2.6043    1.0036  -23.8872 C   0  0  0  0  0  0  0  0  0  0  0  0
   -3.6569   -0.0494  -24.0698 C   0  0  0  0  0  0  0  0  0  0  0  0
   -4.4733   -0.5052  -22.8969 C   0  0  0  0  0  0  0  0  0  0  0  0
   -4.2370    0.0920  -21.5414 C   0  0  0  0  0  0  0  0  0  0  0  0
  2  3  1  0  0  0
  3  4  1  0  0  0
  3  5  1  0  0  0
  5  6  1  0  0  0
  6  7  1  0  0  0
  7  8  1  0  0  0
  8  9  2  0  0  0
  8  1  1  0  0  0
  1 12  1  0  0  0
 12 13  2  0  0  0
 13 14  1  0  0  0
 14 15  2  0  0  0
 15 16  1  0  0  0
 16 17  2  0  0  0
 17 18  1  0  0  0
 18 19  2  0  0  0
 19 20  1  0  0  0
 20 21  2  0  0  0
  7 10  1  0  0  0
 10 11  1  0  0  0
 11  3  1  0  0  0
 21 12  1  0  0  0
 21 16  1  0  0  0
M  END
> <minimizedAffinity>
-6.28998

> <CNNscore>
0.6452817917

> <CNNaffinity>
4.8339276314

> <CNN_VS>
3.1192455292

> <CNNaffinity_variance>
0.1546453536

$$$$



 21 23  0  0  0  0  0  0  0  0999 V2000
   -6.9015   -0.7590  -22.3189 C   0  0  0  0  0  0  0  0  0  0  0  0
  -13.5816   -0.5872  -23.5098 C   0  0  0  0  0  0  0  0  0  0  0  0
  -12.2505   -1.0973  -23.0425 C   0  0  0  0  0  0  0  0  0  0  0  0
  -13.1270   -2.2439  -22.6337 C   0  0  0  0  0  0  0  0  0  0  0  0
  -11.2240   -2.0055  -22.4333 C   0  0  0  0  0  0  0  0  0  0  0  0
   -9.7832   -1.5900  -22.3952 C   0  0  0  0  0  0  0  0  0  0  0  0
   -9.3689   -0.2663  -22.9662 N   0  0  0  0  0  0  0  0  0  0  0  0
   -7.9281    0.1492  -22.9281 C   0  0  0  0  0  0  0  0  0  0  0  0
   -7.5140    1.4730  -23.4992 O   0  0  0  0  0  0  0  0  0  0  0  0
  -10.3956    0.6420  -23.5755 C   0  0  0  0  0  0  0  0  0  0  0  0
  -11.8364    0.2265  -23.6136 C   0  0  0  0  0  0  0  0  0  0  0  0
   -6.3024   -0.4256  -20.9848 C   0  0  0  0  0  0  0  0  0  0  0  0
   -6.9861   -0.8658  -19.7244 C   0  0  0  0  0  0  0  0  0  0  0  0
   -6.3869   -0.5323  -18.3903 N   0  0  0  0  0  0  0  0  0  0  0  0
   -5.1040    0.2413  -18.3166 C   0  0  0  0  0  0  0  0  0  0  0  0
   -4.4202    0.6816  -19.5771 C   0  0  0  0  0  0  0  0  0  0  0  0
   -3.1372    1.4553  -19.5034 C   0  0  0  0  0  0  0  0  0  0  0  0
   -2.4535    1.8955  -20.7638 C   0  0  0  0  0  0  0  0  0  0  0  0
   -3.0527    1.5620  -22.0979 C   0  0  0  0  0  0  0  0  0  0  0  0
   -4.3356    0.7884  -22.1716 C   0  0  0  0  0  0  0  0  0  0  0  0
   -5.0194    0.3482  -20.9112 C   0  0  0  0  0  0  0  0  0  0  0  0
  2  3  1  0  0  0
  3  4  1  0  0  0
  3  5  1  0  0  0
  5  6  1  0  0  0
  6  7  1  0  0  0
  7  8  1  0  0  0
  8  9  2  0  0  0
  8  1  1  0  0  0
  1 12  1  0  0  0
 12 13  2  0  0  0
 13 14  1  0  0  0
 14 15  2  0  0  0
 15 16  1  0  0  0
 16 17  2  0  0  0
 17 18  1  0  0  0
 18 19  2  0  0  0
 19 20  1  0  0  0
 20 21  2  0  0  0
  7 10  1  0  0  0
 10 11  1  0  0  0
 11  3  1  0  0  0
 21 12  1  0  0  0
 21 16  1  0  0  0
M  END
> <minimizedAffinity>
-6.65324

> <CNNscore>
0.5162788033

> <CNNaffinity>
5.0374960899

> <CNN_VS>
2.6007523537

> <CNNaffinity_variance>
0.1123309359

$$$$



 21 23  0  0  0  0  0  0  0  0999 V2000
   -7.2437   -0.9362  -21.1971 C   0  0  0  0  0  0  0  0  0  0  0  0
   -1.2878    2.1554  -20.1776 C   0  0  0  0  0  0  0  0  0  0  0  0
   -2.4096    1.4708  -20.9007 C   0  0  0  0  0  0  0  0  0  0  0  0
   -1.4686    1.7078  -22.0446 C   0  0  0  0  0  0  0  0  0  0  0  0
   -3.2046    0.8685  -22.0210 C   0  0  0  0  0  0  0  0  0  0  0  0
   -4.5510    0.2669  -21.7464 C   0  0  0  0  0  0  0  0  0  0  0  0
   -5.1023    0.2676  -20.3514 N   0  0  0  0  0  0  0  0  0  0  0  0
   -6.4487   -0.3339  -20.0768 C   0  0  0  0  0  0  0  0  0  0  0  0
   -7.0000   -0.3332  -18.6817 O   0  0  0  0  0  0  0  0  0  0  0  0
   -4.3073    0.8699  -19.2310 C   0  0  0  0  0  0  0  0  0  0  0  0
   -2.9609    1.4715  -19.5057 C   0  0  0  0  0  0  0  0  0  0  0  0
   -8.1833   -0.0809  -21.9943 C   0  0  0  0  0  0  0  0  0  0  0  0
   -7.8218    1.3411  -22.3058 C   0  0  0  0  0  0  0  0  0  0  0  0
   -8.7614    2.1964  -23.1031 N   0  0  0  0  0  0  0  0  0  0  0  0
  -10.0625    1.6297  -23.5888 C   0  0  0  0  0  0  0  0  0  0  0  0
  -10.4240    0.2076  -23.2773 C   0  0  0  0  0  0  0  0  0  0  0  0
  -11.7251   -0.3592  -23.7631 C   0  0  0  0  0  0  0  0  0  0  0  0
  -12.0865   -1.7812  -23.4516 C   0  0  0  0  0  0  0  0  0  0  0  0
  -11.1469   -2.6365  -22.6544 C   0  0  0  0  0  0  0  0  0  0  0  0
   -9.8459   -2.0698  -22.1686 C   0  0  0  0  0  0  0  0  0  0  0  0
   -9.4844   -0.6477  -22.4801 C   0  0  0  0  0  0  0  0  0  0  0  0
  2  3  1  0  0  0
  3  4  1  0  0  0
  3  5  1  0  0  0
  5  6  1  0  0  0
  6  7  1  0  0  0
  7  8  1  0  0  0
  8  9  2  0  0  0
  8  1  1  0  0  0
  1 12  1  0  0  0
 12 13  2  0  0  0
 13 14  1  0  0  0
 14 15  2  0  0  0
 15 16  1  0  0  0
 16 17  2  0  0  0
 17 18  1  0  0  0
 18 19  2  0  0  0
 19 20  1  0  0  0
 20 21  2  0  0  0
  7 10  1  0  0  0
 10 11  1  0  0  0
 11  3  1  0  0  0
 21 12  1  0  0  0
 21 16  1  0  0  0
M  END
> <minimizedAffinity>
-6.48823

> <CNNscore>
0.5054727197

> <CNNaffinity>
4.8395543098

> <CNN_VS>
2.4462625980

> <CNNaffinity_variance>
0.2070378065

$$$$



 21 23  0  0  0  0  0  0  0  0999 V2000
   -6.8073   -1.5218  -22.4606 C   0  0  0  0  0  0  0  0  0  0  0  0
  -13.3210   -0.0275  -23.6482 C   0  0  0  0  0  0  0  0  0  0  0  0
  -11.8560    0.1759  -23.3981 C   0  0  0  0  0  0  0  0  0  0  0  0
  -12.2999    1.6035  -23.5211 C   0  0  0  0  0  0  0  0  0  0  0  0
  -10.5452    0.8751  -23.1908 C   0  0  0  0  0  0  0  0  0  0  0  0
   -9.2992    0.0761  -22.9474 C   0  0  0  0  0  0  0  0  0  0  0  0
   -9.3640   -1.4220  -22.9113 N   0  0  0  0  0  0  0  0  0  0  0  0
   -8.1181   -2.2209  -22.6679 C   0  0  0  0  0  0  0  0  0  0  0  0
   -8.1829   -3.7192  -22.6317 O   0  0  0  0  0  0  0  0  0  0  0  0
  -10.6748   -2.1212  -23.1186 C   0  0  0  0  0  0  0  0  0  0  0  0
  -11.9208   -1.3223  -23.3620 C   0  0  0  0  0  0  0  0  0  0  0  0
   -6.4482   -0.9877  -21.1056 C   0  0  0  0  0  0  0  0  0  0  0  0
   -7.3338   -1.2716  -19.9287 C   0  0  0  0  0  0  0  0  0  0  0  0
   -6.9746   -0.7376  -18.5738 N   0  0  0  0  0  0  0  0  0  0  0  0
   -5.7299    0.0803  -18.3958 C   0  0  0  0  0  0  0  0  0  0  0  0
   -4.8442    0.3642  -19.5727 C   0  0  0  0  0  0  0  0  0  0  0  0
   -3.5995    1.1820  -19.3947 C   0  0  0  0  0  0  0  0  0  0  0  0
   -2.7140    1.4659  -20.5716 C   0  0  0  0  0  0  0  0  0  0  0  0
   -3.0731    0.9319  -21.9265 C   0  0  0  0  0  0  0  0  0  0  0  0
   -4.3178    0.1140  -22.1045 C   0  0  0  0  0  0  0  0  0  0  0  0
   -5.2034   -0.1698  -20.9276 C   0  0  0  0  0  0  0  0  0  0  0  0
  2  3  1  0  0  0
  3  4  1  0  0  0
  3  5  1  0  0  0
  5  6  1  0  0  0
  6  7  1  0  0  0
  7  8  1  0  0  0
  8  9  2  0  0  0
  8  1  1  0  0  0
  1 12  1  0  0  0
 12 13  2  0  0  0
 13 14  1  0  0  0
 14 15  2  0  0  0
 15 16  1  0  0  0
 16 17  2  0  0  0
 17 18  1  0  0  0
 18 19  2  0  0  0
 19 20  1  0  0  0
 20 21  2  0  0  0
  7 10  1  0  0  0
 10 11  1  0  0  0
 11  3  1  0  0  0
 21 12  1  0  0  0
 21 16  1  0  0  0
M  END
> <minimizedAffinity>
-7.28003

> <CNNscore>
0.4620386958

> <CNNaffinity>
4.9659128189

> <CNN_VS>
2.2944438457

> <CNNaffinity_variance>
0.3643605709

$$$$



 21 23  0  0  0  0  0  0  0  0999 V2000
   -8.8712   -1.7648  -24.1197 C   0  0  0  0  0  0  0  0  0  0  0  0
   -5.4065   -6.9932  -21.5254 C   0  0  0  0  0  0  0  0  0  0  0  0
   -6.3980   -6.2427  -22.3644 C   0  0  0  0  0  0  0  0  0  0  0  0
   -6.6834   -7.6446  -22.8153 C   0  0  0  0  0  0  0  0  0  0  0  0
   -7.4886   -5.9791  -23.3599 C   0  0  0  0  0  0  0  0  0  0  0  0
   -7.9495   -4.5744  -23.6132 C   0  0  0  0  0  0  0  0  0  0  0  0
   -7.3198   -3.4331  -22.8709 N   0  0  0  0  0  0  0  0  0  0  0  0
   -7.7807   -2.0283  -23.1241 C   0  0  0  0  0  0  0  0  0  0  0  0
   -7.1510   -0.8871  -22.3817 O   0  0  0  0  0  0  0  0  0  0  0  0
   -6.2292   -3.6967  -21.8752 C   0  0  0  0  0  0  0  0  0  0  0  0
   -5.7683   -5.1015  -21.6220 C   0  0  0  0  0  0  0  0  0  0  0  0
  -10.2979   -1.6793  -23.6643 C   0  0  0  0  0  0  0  0  0  0  0  0
  -11.0165   -2.9161  -23.2131 C   0  0  0  0  0  0  0  0  0  0  0  0
  -12.4432   -2.8306  -22.7577 N   0  0  0  0  0  0  0  0  0  0  0  0
  -13.1512   -1.5083  -22.7536 C   0  0  0  0  0  0  0  0  0  0  0  0
  -12.4325   -0.2713  -23.2048 C   0  0  0  0  0  0  0  0  0  0  0  0
  -13.1405    1.0510  -23.2007 C   0  0  0  0  0  0  0  0  0  0  0  0
  -12.4219    2.2879  -23.6519 C   0  0  0  0  0  0  0  0  0  0  0  0
  -10.9952    2.2024  -24.1073 C   0  0  0  0  0  0  0  0  0  0  0  0
  -10.2872    0.8800  -24.1114 C   0  0  0  0  0  0  0  0  0  0  0  0
  -11.0059   -0.3568  -23.6602 C   0  0  0  0  0  0  0  0  0  0  0  0
  2  3  1  0  0  0
  3  4  1  0  0  0
  3  5  1  0  0  0
  5  6  1  0  0  0
  6  7  1  0  0  0
  7  8  1  0  0  0
  8  9  2  0  0  0
  8  1  1  0  0  0
  1 12  1  0  0  0
 12 13  2  0  0  0
 13 14  1  0  0  0
 14 15  2  0  0  0
 15 16  1  0  0  0
 16 17  2  0  0  0
 17 18  1  0  0  0
 18 19  2  0  0  0
 19 20  1  0  0  0
 20 21  2  0  0  0
  7 10  1  0  0  0
 10 11  1  0  0  0
 11  3  1  0  0  0
 21 12  1  0  0  0
 21 16  1  0  0  0
M  END
> <minimizedAffinity>
-6.40455

> <CNNscore>
0.4440265000

> <CNNaffinity>
5.1513814926

> <CNN_VS>
2.2873499393

> <CNNaffinity_variance>
0.2351044118

$$$$



 21 23  0  0  0  0  0  0  0  0999 V2000
   -8.4908   -0.3315  -23.3876 C   0  0  0  0  0  0  0  0  0  0  0  0
   -3.2467    1.6919  -19.5830 C   0  0  0  0  0  0  0  0  0  0  0  0
   -4.1908    1.6131  -20.7460 C   0  0  0  0  0  0  0  0  0  0  0  0
   -3.2549    2.6754  -21.2418 C   0  0  0  0  0  0  0  0  0  0  0  0
   -4.8098    1.9031  -22.0811 C   0  0  0  0  0  0  0  0  0  0  0  0
   -6.0368    1.1582  -22.5166 C   0  0  0  0  0  0  0  0  0  0  0  0
   -6.6448    0.1233  -21.6170 N   0  0  0  0  0  0  0  0  0  0  0  0
   -7.8718   -0.6215  -22.0525 C   0  0  0  0  0  0  0  0  0  0  0  0
   -8.4797   -1.6565  -21.1528 O   0  0  0  0  0  0  0  0  0  0  0  0
   -6.0257   -0.1668  -20.2818 C   0  0  0  0  0  0  0  0  0  0  0  0
   -4.7987    0.5781  -19.8463 C   0  0  0  0  0  0  0  0  0  0  0  0
   -9.8151    0.3689  -23.4641 C   0  0  0  0  0  0  0  0  0  0  0  0
   -9.8709    1.8363  -23.7698 C   0  0  0  0  0  0  0  0  0  0  0  0
  -11.1952    2.5366  -23.8463 N   0  0  0  0  0  0  0  0  0  0  0  0
  -12.4636    1.7695  -23.6170 C   0  0  0  0  0  0  0  0  0  0  0  0
  -12.4078    0.3020  -23.3112 C   0  0  0  0  0  0  0  0  0  0  0  0
  -13.6763   -0.4650  -23.0820 C   0  0  0  0  0  0  0  0  0  0  0  0
  -13.6204   -1.9325  -22.7763 C   0  0  0  0  0  0  0  0  0  0  0  0
  -12.2962   -2.6328  -22.6998 C   0  0  0  0  0  0  0  0  0  0  0  0
  -11.0277   -1.8657  -22.9291 C   0  0  0  0  0  0  0  0  0  0  0  0
  -11.0836   -0.3983  -23.2348 C   0  0  0  0  0  0  0  0  0  0  0  0
  2  3  1  0  0  0
  3  4  1  0  0  0
  3  5  1  0  0  0
  5  6  1  0  0  0
  6  7  1  0  0  0
  7  8  1  0  0  0
  8  9  2  0  0  0
  8  1  1  0  0  0
  1 12  1  0  0  0
 12 13  2  0  0  0
 13 14  1  0  0  0
 14 15  2  0  0  0
 15 16  1  0  0  0
 16 17  2  0  0  0
 17 18  1  0  0  0
 18 19  2  0  0  0
 19 20  1  0  0  0
 20 21  2  0  0  0
  7 10  1  0  0  0
 10 11  1  0  0  0
 11  3  1  0  0  0
 21 12  1  0  0  0
 21 16  1  0  0  0
M  END
> <minimizedAffinity>
-6.13323

> <CNNscore>
0.4253813326

> <CNNaffinity>
4.5644059181

> <CNN_VS>
1.9416130781

> <CNNaffinity_variance>
0.1471568644

$$$$



 21 23  0  0  0  0  0  0  0  0999 V2000
   -5.4400   -1.3796  -20.2522 C   0  0  0  0  0  0  0  0  0  0  0  0
   -6.5243   -6.3298  -24.7678 C   0  0  0  0  0  0  0  0  0  0  0  0
   -6.3761   -4.9455  -24.2092 C   0  0  0  0  0  0  0  0  0  0  0  0
   -6.6853   -4.6174  -25.6398 C   0  0  0  0  0  0  0  0  0  0  0  0
   -6.3354   -3.4474  -24.1474 C   0  0  0  0  0  0  0  0  0  0  0  0
   -6.0369   -2.7581  -22.8490 C   0  0  0  0  0  0  0  0  0  0  0  0
   -5.7792   -3.5670  -21.6124 N   0  0  0  0  0  0  0  0  0  0  0  0
   -5.4807   -2.8777  -20.3140 C   0  0  0  0  0  0  0  0  0  0  0  0
   -5.2230   -3.6866  -19.0773 O   0  0  0  0  0  0  0  0  0  0  0  0
   -5.8199   -5.0652  -21.6741 C   0  0  0  0  0  0  0  0  0  0  0  0
   -6.1184   -5.7545  -22.9725 C   0  0  0  0  0  0  0  0  0  0  0  0
   -6.5335   -0.5727  -20.8872 C   0  0  0  0  0  0  0  0  0  0  0  0
   -7.9207   -1.1350  -20.9843 C   0  0  0  0  0  0  0  0  0  0  0  0
   -9.0143   -0.3281  -21.6193 N   0  0  0  0  0  0  0  0  0  0  0  0
   -8.7206    1.0410  -22.1570 C   0  0  0  0  0  0  0  0  0  0  0  0
   -7.3334    1.6033  -22.0599 C   0  0  0  0  0  0  0  0  0  0  0  0
   -7.0397    2.9725  -22.5976 C   0  0  0  0  0  0  0  0  0  0  0  0
   -5.6525    3.5347  -22.5004 C   0  0  0  0  0  0  0  0  0  0  0  0
   -4.5590    2.7279  -21.8655 C   0  0  0  0  0  0  0  0  0  0  0  0
   -4.8526    1.3588  -21.3278 C   0  0  0  0  0  0  0  0  0  0  0  0
   -6.2398    0.7965  -21.4249 C   0  0  0  0  0  0  0  0  0  0  0  0
  2  3  1  0  0  0
  3  4  1  0  0  0
  3  5  1  0  0  0
  5  6  1  0  0  0
  6  7  1  0  0  0
  7  8  1  0  0  0
  8  9  2  0  0  0
  8  1  1  0  0  0
  1 12  1  0  0  0
 12 13  2  0  0  0
 13 14  1  0  0  0
 14 15  2  0  0  0
 15 16  1  0  0  0
 16 17  2  0  0  0
 17 18  1  0  0  0
 18 19  2  0  0  0
 19 20  1  0  0  0
 20 21  2  0  0  0
  7 10  1  0  0  0
 10 11  1  0  0  0
 11  3  1  0  0  0
 21 12  1  0  0  0
 21 16  1  0  0  0
M  END
> <minimizedAffinity>
-6.26673

> <CNNscore>
0.3937621415

> <CNNaffinity>
5.0120306015

> <CNN_VS>
1.9735479355

> <CNNaffinity_variance>
0.0672757998

$$$$
