


 39 44  0  0  0  0  0  0  0  0999 V2000
    4.9860    1.3423   22.4487 N   0  0  0  0  0  0  0  0  0  0  0  0
    6.2929    0.6081   22.3937 C   0  0  0  0  0  0  0  0  0  0  0  0
    6.6587   -0.3546   23.4843 C   0  0  0  0  0  0  0  0  0  0  0  0
    7.1583   -1.3425   24.4964 C   0  0  0  0  0  0  0  0  0  0  0  0
    6.8162   -1.8567   25.5428 O   0  0  0  0  0  0  0  0  0  0  0  0
    8.5038   -1.8283   24.0452 N   0  0  0  0  0  0  0  0  0  0  0  0
    8.8359   -1.1406   22.7542 C   0  0  0  0  0  0  0  0  0  0  0  0
    7.6956   -0.2298   22.4075 C   0  0  0  0  0  0  0  0  0  0  0  0
    5.7177   -0.5830   24.6299 C   0  0  0  0  0  0  0  0  0  0  0  0
    6.0836   -1.5457   25.7205 C   0  0  0  0  0  0  0  0  0  0  0  0
    5.1426   -1.7741   26.8660 C   0  0  0  0  0  0  0  0  0  0  0  0
    5.5085   -2.7368   27.9567 Cl  0  0  0  0  0  0  0  0  0  0  0  0
    3.8358   -1.0399   26.9210 C   0  0  0  0  0  0  0  0  0  0  0  0
    3.4699   -0.0773   25.8304 C   0  0  0  0  0  0  0  0  0  0  0  0
    4.4109    0.1512   24.6849 C   0  0  0  0  0  0  0  0  0  0  0  0
    4.0450    1.1139   23.5942 C   0  0  0  0  0  0  0  0  0  0  0  0
    2.7381    1.8481   23.6492 O   0  0  0  0  0  0  0  0  0  0  0  0
    9.3659   -2.8265   24.7596 C   0  0  0  0  0  0  0  0  0  0  0  0
    8.8205   -4.1821   25.0984 C   0  0  0  0  0  0  0  0  0  0  0  0
    9.6826   -5.1803   25.8128 N   0  0  0  0  0  0  0  0  0  0  0  0
   11.0901   -4.8229   26.1885 C   0  0  0  0  0  0  0  0  0  0  0  0
   11.6355   -3.4672   25.8497 C   0  0  0  0  0  0  0  0  0  0  0  0
   13.0431   -3.1097   26.2254 C   0  0  0  0  0  0  0  0  0  0  0  0
   13.5884   -1.7541   25.8867 C   0  0  0  0  0  0  0  0  0  0  0  0
   12.7263   -0.7559   25.1722 C   0  0  0  0  0  0  0  0  0  0  0  0
   11.3188   -1.1133   24.7966 C   0  0  0  0  0  0  0  0  0  0  0  0
   10.7734   -2.4690   25.1353 C   0  0  0  0  0  0  0  0  0  0  0  0
    4.6201    2.3050   21.3580 C   0  0  0  0  0  0  0  0  0  0  0  0
    4.7215    0.9103   17.6439 C   0  0  0  0  0  0  0  0  0  0  0  0
    5.1760    1.4252   18.9775 N   0  0  0  0  0  0  0  0  0  0  0  0
    4.1657    1.7901   20.0245 C   0  0  0  0  0  0  0  0  0  0  0  0
    2.7009    1.6400   19.7379 O   0  0  0  0  0  0  0  0  0  0  0  0
    6.1373    1.5237   19.1656 H   0  0  0  0  0  0  0  0  0  0  0  0
    7.6075    0.6511   21.1966 C   0  0  0  0  0  0  0  0  0  0  0  0
    8.4421    1.8945   21.1114 O   0  0  0  0  0  0  0  0  0  0  0  0
    8.9328    2.5559   22.3650 C   0  0  0  0  0  0  0  0  0  0  0  0
   10.4054    2.7122   22.6036 C   0  0  0  0  0  0  0  0  0  0  0  0
   11.6658    2.2658   23.2835 C   0  0  0  0  0  0  0  0  0  0  0  0
   11.6957    3.4291   22.3370 C   0  0  0  0  0  0  0  0  0  0  0  0
 29 30  1  0  0  0
 30 31  1  0  0  0
 31 32  2  0  0  0
 31 28  1  0  0  0
 28  1  1  0  0  0
  1  2  1  0  0  0
  3  2  1  0  0  0
  3  4  1  0  0  0
  4  5  2  0  0  0
  4  6  1  0  0  0
  6 18  1  0  0  0
 18 19  2  0  0  0
 19 20  1  0  0  0
 20 21  2  0  0  0
 21 22  1  0  0  0
 22 23  2  0  0  0
 23 24  1  0  0  0
 24 25  2  0  0  0
 25 26  1  0  0  0
 26 27  2  0  0  0
  6  7  1  0  0  0
  7  8  1  0  0  0
  8 34  1  0  0  0
 34 35  1  0  0  0
 35 36  1  0  0  0
 36 37  1  0  0  0
 37 38  1  0  0  0
 38 39  1  0  0  0
  3  9  1  0  0  0
  9 10  2  0  0  0
 10 11  1  0  0  0
 11 12  1  0  0  0
 11 13  2  0  0  0
 13 14  1  0  0  0
 14 15  2  0  0  0
 15 16  1  0  0  0
 16 17  2  0  0  0
 16  1  1  0  0  0
  8  3  1  0  0  0
 39 37  1  0  0  0
 15  9  1  0  0  0
 27 18  1  0  0  0
 27 22  1  0  0  0
 30 33  1  0  0  0
M  END
> <minimizedAffinity>
-7.35906

> <CNNscore>
0.5009770989

> <CNNaffinity>
6.9433975220

> <CNN_VS>
3.4784832001

> <CNNaffinity_variance>
0.0711346045

$$$$



 39 44  0  0  0  0  0  0  0  0999 V2000
    9.9349    0.4600   22.7085 N   0  0  0  0  0  0  0  0  0  0  0  0
    8.7789   -0.4852   22.5664 C   0  0  0  0  0  0  0  0  0  0  0  0
    8.7352   -1.7444   23.3803 C   0  0  0  0  0  0  0  0  0  0  0  0
    8.5548   -3.0347   24.1235 C   0  0  0  0  0  0  0  0  0  0  0  0
    9.1186   -3.7153   24.9573 O   0  0  0  0  0  0  0  0  0  0  0  0
    7.2647   -3.6530   23.6725 N   0  0  0  0  0  0  0  0  0  0  0  0
    6.6477   -2.7447   22.6506 C   0  0  0  0  0  0  0  0  0  0  0  0
    7.5565   -1.5651   22.4700 C   0  0  0  0  0  0  0  0  0  0  0  0
    9.8475   -2.0584   24.3365 C   0  0  0  0  0  0  0  0  0  0  0  0
    9.8038   -3.3176   25.1504 C   0  0  0  0  0  0  0  0  0  0  0  0
   10.9161   -3.6315   26.1065 C   0  0  0  0  0  0  0  0  0  0  0  0
   10.8725   -4.8908   26.9204 Cl  0  0  0  0  0  0  0  0  0  0  0  0
   12.0722   -2.6863   26.2486 C   0  0  0  0  0  0  0  0  0  0  0  0
   12.1159   -1.4272   25.4347 C   0  0  0  0  0  0  0  0  0  0  0  0
   11.0036   -1.1132   24.4786 C   0  0  0  0  0  0  0  0  0  0  0  0
   11.0472    0.1460   23.6646 C   0  0  0  0  0  0  0  0  0  0  0  0
   12.2033    1.0912   23.8068 O   0  0  0  0  0  0  0  0  0  0  0  0
    6.6921   -4.9516   24.1582 C   0  0  0  0  0  0  0  0  0  0  0  0
    7.2299   -6.2506   23.6354 C   0  0  0  0  0  0  0  0  0  0  0  0
    6.6574   -7.5492   24.1211 N   0  0  0  0  0  0  0  0  0  0  0  0
    5.5470   -7.5487   25.1296 C   0  0  0  0  0  0  0  0  0  0  0  0
    5.0092   -6.2497   25.6524 C   0  0  0  0  0  0  0  0  0  0  0  0
    3.8988   -6.2492   26.6609 C   0  0  0  0  0  0  0  0  0  0  0  0
    3.3610   -4.9501   27.1836 C   0  0  0  0  0  0  0  0  0  0  0  0
    3.9336   -3.6516   26.6979 C   0  0  0  0  0  0  0  0  0  0  0  0
    5.0440   -3.6521   25.6895 C   0  0  0  0  0  0  0  0  0  0  0  0
    5.5818   -4.9511   25.1667 C   0  0  0  0  0  0  0  0  0  0  0  0
    9.9786    1.7193   21.8946 C   0  0  0  0  0  0  0  0  0  0  0  0
   10.7337    5.4475   23.0257 C   0  0  0  0  0  0  0  0  0  0  0  0
   10.8749    4.1143   22.3529 N   0  0  0  0  0  0  0  0  0  0  0  0
    9.8374    3.0525   22.5673 C   0  0  0  0  0  0  0  0  0  0  0  0
    8.6587    3.3237   23.4546 O   0  0  0  0  0  0  0  0  0  0  0  0
   11.6485    3.9363   21.7706 H   0  0  0  0  0  0  0  0  0  0  0  0
    7.3270   -0.4092   21.5420 C   0  0  0  0  0  0  0  0  0  0  0  0
    6.9945   -0.6589   20.1008 O   0  0  0  0  0  0  0  0  0  0  0  0
    5.5616   -0.7244   19.6621 C   0  0  0  0  0  0  0  0  0  0  0  0
    4.9887    0.3662   18.8064 C   0  0  0  0  0  0  0  0  0  0  0  0
    4.8795    1.0526   17.4771 C   0  0  0  0  0  0  0  0  0  0  0  0
    4.1055    1.5690   18.6536 C   0  0  0  0  0  0  0  0  0  0  0  0
 29 30  1  0  0  0
 30 31  1  0  0  0
 31 32  2  0  0  0
 31 28  1  0  0  0
 28  1  1  0  0  0
  1  2  1  0  0  0
  3  2  1  0  0  0
  3  4  1  0  0  0
  4  5  2  0  0  0
  4  6  1  0  0  0
  6 18  1  0  0  0
 18 19  2  0  0  0
 19 20  1  0  0  0
 20 21  2  0  0  0
 21 22  1  0  0  0
 22 23  2  0  0  0
 23 24  1  0  0  0
 24 25  2  0  0  0
 25 26  1  0  0  0
 26 27  2  0  0  0
  6  7  1  0  0  0
  7  8  1  0  0  0
  8 34  1  0  0  0
 34 35  1  0  0  0
 35 36  1  0  0  0
 36 37  1  0  0  0
 37 38  1  0  0  0
 38 39  1  0  0  0
  3  9  1  0  0  0
  9 10  2  0  0  0
 10 11  1  0  0  0
 11 12  1  0  0  0
 11 13  2  0  0  0
 13 14  1  0  0  0
 14 15  2  0  0  0
 15 16  1  0  0  0
 16 17  2  0  0  0
 16  1  1  0  0  0
  8  3  1  0  0  0
 39 37  1  0  0  0
 15  9  1  0  0  0
 27 18  1  0  0  0
 27 22  1  0  0  0
 30 33  1  0  0  0
M  END
> <minimizedAffinity>
-8.68416

> <CNNscore>
0.2708602548

> <CNNaffinity>
6.7798852921

> <CNN_VS>
1.8364014626

> <CNNaffinity_variance>
0.1796072423

$$$$



 39 44  0  0  0  0  0  0  0  0999 V2000
    4.9389    1.6020   21.1458 N   0  0  0  0  0  0  0  0  0  0  0  0
    5.8314    0.4132   21.3467 C   0  0  0  0  0  0  0  0  0  0  0  0
    7.2229    0.6007   21.8743 C   0  0  0  0  0  0  0  0  0  0  0  0
    8.6305    0.6322   22.3915 C   0  0  0  0  0  0  0  0  0  0  0  0
    9.4622    1.4289   22.7788 O   0  0  0  0  0  0  0  0  0  0  0  0
    9.1420   -0.7773   22.4300 N   0  0  0  0  0  0  0  0  0  0  0  0
    8.0504   -1.6801   21.9367 C   0  0  0  0  0  0  0  0  0  0  0  0
    6.8644   -0.8285   21.5932 C   0  0  0  0  0  0  0  0  0  0  0  0
    7.7221    1.9769   22.2012 C   0  0  0  0  0  0  0  0  0  0  0  0
    9.1136    2.1644   22.7288 C   0  0  0  0  0  0  0  0  0  0  0  0
    9.6127    3.5406   23.0557 C   0  0  0  0  0  0  0  0  0  0  0  0
   11.0043    3.7281   23.5834 Cl  0  0  0  0  0  0  0  0  0  0  0  0
    8.7203    4.7294   22.8549 C   0  0  0  0  0  0  0  0  0  0  0  0
    7.3287    4.5420   22.3272 C   0  0  0  0  0  0  0  0  0  0  0  0
    6.8296    3.1657   22.0004 C   0  0  0  0  0  0  0  0  0  0  0  0
    5.4380    2.9783   21.4727 C   0  0  0  0  0  0  0  0  0  0  0  0
    4.5456    4.1671   21.2718 O   0  0  0  0  0  0  0  0  0  0  0  0
   10.5056   -1.2084   22.8825 C   0  0  0  0  0  0  0  0  0  0  0  0
   11.7051   -0.9190   22.0296 C   0  0  0  0  0  0  0  0  0  0  0  0
   13.0688   -1.3501   22.4821 N   0  0  0  0  0  0  0  0  0  0  0  0
   13.2328   -2.0706   23.7874 C   0  0  0  0  0  0  0  0  0  0  0  0
   12.0333   -2.3600   24.6403 C   0  0  0  0  0  0  0  0  0  0  0  0
   12.1974   -3.0805   25.9458 C   0  0  0  0  0  0  0  0  0  0  0  0
   10.9978   -3.3698   26.7986 C   0  0  0  0  0  0  0  0  0  0  0  0
    9.6342   -2.9387   26.3461 C   0  0  0  0  0  0  0  0  0  0  0  0
    9.4702   -2.2183   25.0408 C   0  0  0  0  0  0  0  0  0  0  0  0
   10.6697   -1.9289   24.1879 C   0  0  0  0  0  0  0  0  0  0  0  0
    3.5473    1.4146   20.6181 C   0  0  0  0  0  0  0  0  0  0  0  0
   -0.1339    2.3274   21.7866 C   0  0  0  0  0  0  0  0  0  0  0  0
    1.0466    2.0597   20.9006 N   0  0  0  0  0  0  0  0  0  0  0  0
    2.3669    1.6822   21.5041 C   0  0  0  0  0  0  0  0  0  0  0  0
    2.5068    1.5724   22.9936 O   0  0  0  0  0  0  0  0  0  0  0  0
    0.9547    2.1318   19.9231 H   0  0  0  0  0  0  0  0  0  0  0  0
    5.5504   -1.3198   21.0620 C   0  0  0  0  0  0  0  0  0  0  0  0
    5.2232   -2.7829   21.1065 O   0  0  0  0  0  0  0  0  0  0  0  0
    5.5670   -3.5917   22.3220 C   0  0  0  0  0  0  0  0  0  0  0  0
    5.8900   -5.0502   22.1858 C   0  0  0  0  0  0  0  0  0  0  0  0
    6.4941   -6.3046   22.7440 C   0  0  0  0  0  0  0  0  0  0  0  0
    5.8455   -6.3218   21.3915 C   0  0  0  0  0  0  0  0  0  0  0  0
 29 30  1  0  0  0
 30 31  1  0  0  0
 31 32  2  0  0  0
 31 28  1  0  0  0
 28  1  1  0  0  0
  1  2  1  0  0  0
  3  2  1  0  0  0
  3  4  1  0  0  0
  4  5  2  0  0  0
  4  6  1  0  0  0
  6 18  1  0  0  0
 18 19  2  0  0  0
 19 20  1  0  0  0
 20 21  2  0  0  0
 21 22  1  0  0  0
 22 23  2  0  0  0
 23 24  1  0  0  0
 24 25  2  0  0  0
 25 26  1  0  0  0
 26 27  2  0  0  0
  6  7  1  0  0  0
  7  8  1  0  0  0
  8 34  1  0  0  0
 34 35  1  0  0  0
 35 36  1  0  0  0
 36 37  1  0  0  0
 37 38  1  0  0  0
 38 39  1  0  0  0
  3  9  1  0  0  0
  9 10  2  0  0  0
 10 11  1  0  0  0
 11 12  1  0  0  0
 11 13  2  0  0  0
 13 14  1  0  0  0
 14 15  2  0  0  0
 15 16  1  0  0  0
 16 17  2  0  0  0
 16  1  1  0  0  0
  8  3  1  0  0  0
 39 37  1  0  0  0
 15  9  1  0  0  0
 27 18  1  0  0  0
 27 22  1  0  0  0
 30 33  1  0  0  0
M  END
> <minimizedAffinity>
-7.40162

> <CNNscore>
0.2442702055

> <CNNaffinity>
6.6714034081

> <CNN_VS>
1.6296250820

> <CNNaffinity_variance>
0.0283453949

$$$$



 39 44  0  0  0  0  0  0  0  0999 V2000
   10.6823    1.5242   22.8809 N   0  0  0  0  0  0  0  0  0  0  0  0
    9.2951    1.2403   23.3760 C   0  0  0  0  0  0  0  0  0  0  0  0
    9.0522    0.0913   24.3091 C   0  0  0  0  0  0  0  0  0  0  0  0
    8.6579   -1.0163   25.2406 C   0  0  0  0  0  0  0  0  0  0  0  0
    9.1568   -1.9401   25.8523 O   0  0  0  0  0  0  0  0  0  0  0  0
    7.1778   -0.9269   25.4669 N   0  0  0  0  0  0  0  0  0  0  0  0
    6.6573    0.2360   24.6752 C   0  0  0  0  0  0  0  0  0  0  0  0
    7.8158    0.8653   23.9597 C   0  0  0  0  0  0  0  0  0  0  0  0
   10.1966   -0.7740   24.7472 C   0  0  0  0  0  0  0  0  0  0  0  0
    9.9538   -1.9230   25.6803 C   0  0  0  0  0  0  0  0  0  0  0  0
   11.0981   -2.7882   26.1182 C   0  0  0  0  0  0  0  0  0  0  0  0
   10.8553   -3.9373   27.0514 Cl  0  0  0  0  0  0  0  0  0  0  0  0
   12.4853   -2.5043   25.6231 C   0  0  0  0  0  0  0  0  0  0  0  0
   12.7281   -1.3553   24.6900 C   0  0  0  0  0  0  0  0  0  0  0  0
   11.5838   -0.4901   24.2521 C   0  0  0  0  0  0  0  0  0  0  0  0
   11.8266    0.6590   23.3189 C   0  0  0  0  0  0  0  0  0  0  0  0
   13.2138    0.9428   22.8238 O   0  0  0  0  0  0  0  0  0  0  0  0
    6.3615   -1.8401   26.3327 C   0  0  0  0  0  0  0  0  0  0  0  0
    6.1249   -3.2602   25.9113 C   0  0  0  0  0  0  0  0  0  0  0  0
    5.3086   -4.1734   26.7772 N   0  0  0  0  0  0  0  0  0  0  0  0
    4.7289   -3.6665   28.0644 C   0  0  0  0  0  0  0  0  0  0  0  0
    4.9655   -2.2465   28.4858 C   0  0  0  0  0  0  0  0  0  0  0  0
    4.3857   -1.7397   29.7731 C   0  0  0  0  0  0  0  0  0  0  0  0
    4.6223   -0.3196   30.1944 C   0  0  0  0  0  0  0  0  0  0  0  0
    5.4386    0.5936   29.3286 C   0  0  0  0  0  0  0  0  0  0  0  0
    6.0183    0.0867   28.0413 C   0  0  0  0  0  0  0  0  0  0  0  0
    5.7818   -1.3333   27.6199 C   0  0  0  0  0  0  0  0  0  0  0  0
   10.9251    2.6733   21.9478 C   0  0  0  0  0  0  0  0  0  0  0  0
   10.6708    6.3427   23.4381 C   0  0  0  0  0  0  0  0  0  0  0  0
   10.2717    5.0041   22.8914 N   0  0  0  0  0  0  0  0  0  0  0  0
   11.3242    4.0119   22.4944 C   0  0  0  0  0  0  0  0  0  0  0  0
   12.7760    4.3583   22.6441 O   0  0  0  0  0  0  0  0  0  0  0  0
    9.3188    4.7767   22.7932 H   0  0  0  0  0  0  0  0  0  0  0  0
    7.7494    2.0590   23.0539 C   0  0  0  0  0  0  0  0  0  0  0  0
    6.4551    2.7966   22.8787 O   0  0  0  0  0  0  0  0  0  0  0  0
    6.1422    3.4624   21.5714 C   0  0  0  0  0  0  0  0  0  0  0  0
    5.7982    4.9220   21.5366 C   0  0  0  0  0  0  0  0  0  0  0  0
    4.8403    6.0382   21.8307 C   0  0  0  0  0  0  0  0  0  0  0  0
    6.1601    6.3338   21.1821 C   0  0  0  0  0  0  0  0  0  0  0  0
 29 30  1  0  0  0
 30 31  1  0  0  0
 31 32  2  0  0  0
 31 28  1  0  0  0
 28  1  1  0  0  0
  1  2  1  0  0  0
  3  2  1  0  0  0
  3  4  1  0  0  0
  4  5  2  0  0  0
  4  6  1  0  0  0
  6 18  1  0  0  0
 18 19  2  0  0  0
 19 20  1  0  0  0
 20 21  2  0  0  0
 21 22  1  0  0  0
 22 23  2  0  0  0
 23 24  1  0  0  0
 24 25  2  0  0  0
 25 26  1  0  0  0
 26 27  2  0  0  0
  6  7  1  0  0  0
  7  8  1  0  0  0
  8 34  1  0  0  0
 34 35  1  0  0  0
 35 36  1  0  0  0
 36 37  1  0  0  0
 37 38  1  0  0  0
 38 39  1  0  0  0
  3  9  1  0  0  0
  9 10  2  0  0  0
 10 11  1  0  0  0
 11 12  1  0  0  0
 11 13  2  0  0  0
 13 14  1  0  0  0
 14 15  2  0  0  0
 15 16  1  0  0  0
 16 17  2  0  0  0
 16  1  1  0  0  0
  8  3  1  0  0  0
 39 37  1  0  0  0
 15  9  1  0  0  0
 27 18  1  0  0  0
 27 22  1  0  0  0
 30 33  1  0  0  0
M  END
> <minimizedAffinity>
-7.60086

> <CNNscore>
0.2365917712

> <CNNaffinity>
6.6317687035

> <CNN_VS>
1.5690219402

> <CNNaffinity_variance>
0.2107483596

$$$$



 39 44  0  0  0  0  0  0  0  0999 V2000
    9.9834    0.4486   22.7323 N   0  0  0  0  0  0  0  0  0  0  0  0
    8.8234   -0.4896   22.5772 C   0  0  0  0  0  0  0  0  0  0  0  0
    8.7661   -1.7516   23.3859 C   0  0  0  0  0  0  0  0  0  0  0  0
    8.5725   -3.0438   24.1227 C   0  0  0  0  0  0  0  0  0  0  0  0
    9.1258   -3.7306   24.9585 O   0  0  0  0  0  0  0  0  0  0  0  0
    7.2827   -3.6532   23.6589 N   0  0  0  0  0  0  0  0  0  0  0  0
    6.6792   -2.7376   22.6354 C   0  0  0  0  0  0  0  0  0  0  0  0
    7.5959   -1.5624   22.4667 C   0  0  0  0  0  0  0  0  0  0  0  0
    9.8688   -2.0754   24.3499 C   0  0  0  0  0  0  0  0  0  0  0  0
    9.8115   -3.3374   25.1586 C   0  0  0  0  0  0  0  0  0  0  0  0
   10.9142   -3.6611   26.1225 C   0  0  0  0  0  0  0  0  0  0  0  0
   10.8570   -4.9231   26.9313 Cl  0  0  0  0  0  0  0  0  0  0  0  0
   12.0743   -2.7229   26.2777 C   0  0  0  0  0  0  0  0  0  0  0  0
   12.1316   -1.4609   25.4689 C   0  0  0  0  0  0  0  0  0  0  0  0
   11.0289   -1.1372   24.5050 C   0  0  0  0  0  0  0  0  0  0  0  0
   11.0861    0.1248   23.6962 C   0  0  0  0  0  0  0  0  0  0  0  0
   12.2462    1.0631   23.8514 O   0  0  0  0  0  0  0  0  0  0  0  0
    6.6991   -4.9503   24.1350 C   0  0  0  0  0  0  0  0  0  0  0  0
    7.2475   -6.2508   23.6270 C   0  0  0  0  0  0  0  0  0  0  0  0
    6.6638   -7.5480   24.1031 N   0  0  0  0  0  0  0  0  0  0  0  0
    5.5317   -7.5447   25.0871 C   0  0  0  0  0  0  0  0  0  0  0  0
    4.9833   -6.2442   25.5950 C   0  0  0  0  0  0  0  0  0  0  0  0
    3.8511   -6.2409   26.5791 C   0  0  0  0  0  0  0  0  0  0  0  0
    3.3028   -4.9404   27.0870 C   0  0  0  0  0  0  0  0  0  0  0  0
    3.8864   -3.6432   26.6109 C   0  0  0  0  0  0  0  0  0  0  0  0
    5.0185   -3.6465   25.6269 C   0  0  0  0  0  0  0  0  0  0  0  0
    5.5670   -4.9470   25.1190 C   0  0  0  0  0  0  0  0  0  0  0  0
   10.0407    1.7106   21.9235 C   0  0  0  0  0  0  0  0  0  0  0  0
   10.5355    5.4884   23.0339 C   0  0  0  0  0  0  0  0  0  0  0  0
   10.7719    4.1628   22.3731 N   0  0  0  0  0  0  0  0  0  0  0  0
    9.8043    3.0363   22.5843 C   0  0  0  0  0  0  0  0  0  0  0  0
    8.6002    3.2354   23.4565 O   0  0  0  0  0  0  0  0  0  0  0  0
   11.5622    4.0321   21.8007 H   0  0  0  0  0  0  0  0  0  0  0  0
    7.3803   -0.4018   21.5413 C   0  0  0  0  0  0  0  0  0  0  0  0
    6.1434    0.4373   21.6661 O   0  0  0  0  0  0  0  0  0  0  0  0
    4.8806   -0.1640   22.2081 C   0  0  0  0  0  0  0  0  0  0  0  0
    3.9711    0.6559   23.0746 C   0  0  0  0  0  0  0  0  0  0  0  0
    3.0941    1.8577   23.2657 C   0  0  0  0  0  0  0  0  0  0  0  0
    3.2729    0.8742   24.3841 C   0  0  0  0  0  0  0  0  0  0  0  0
 29 30  1  0  0  0
 30 31  1  0  0  0
 31 32  2  0  0  0
 31 28  1  0  0  0
 28  1  1  0  0  0
  1  2  1  0  0  0
  3  2  1  0  0  0
  3  4  1  0  0  0
  4  5  2  0  0  0
  4  6  1  0  0  0
  6 18  1  0  0  0
 18 19  2  0  0  0
 19 20  1  0  0  0
 20 21  2  0  0  0
 21 22  1  0  0  0
 22 23  2  0  0  0
 23 24  1  0  0  0
 24 25  2  0  0  0
 25 26  1  0  0  0
 26 27  2  0  0  0
  6  7  1  0  0  0
  7  8  1  0  0  0
  8 34  1  0  0  0
 34 35  1  0  0  0
 35 36  1  0  0  0
 36 37  1  0  0  0
 37 38  1  0  0  0
 38 39  1  0  0  0
  3  9  1  0  0  0
  9 10  2  0  0  0
 10 11  1  0  0  0
 11 12  1  0  0  0
 11 13  2  0  0  0
 13 14  1  0  0  0
 14 15  2  0  0  0
 15 16  1  0  0  0
 16 17  2  0  0  0
 16  1  1  0  0  0
  8  3  1  0  0  0
 39 37  1  0  0  0
 15  9  1  0  0  0
 27 18  1  0  0  0
 27 22  1  0  0  0
 30 33  1  0  0  0
M  END
> <minimizedAffinity>
-7.58399

> <CNNscore>
0.2238570005

> <CNNaffinity>
6.7188463211

> <CNN_VS>
1.5040607452

> <CNNaffinity_variance>
0.2013128102

$$$$



 39 44  0  0  0  0  0  0  0  0999 V2000
   10.7603    1.4750   22.6394 N   0  0  0  0  0  0  0  0  0  0  0  0
    9.3634    0.9868   22.8846 C   0  0  0  0  0  0  0  0  0  0  0  0
    9.1306   -0.2193   23.7455 C   0  0  0  0  0  0  0  0  0  0  0  0
    8.7446   -1.4049   24.5793 C   0  0  0  0  0  0  0  0  0  0  0  0
    9.2580   -2.2750   25.2543 O   0  0  0  0  0  0  0  0  0  0  0  0
    7.2497   -1.5259   24.5491 N   0  0  0  0  0  0  0  0  0  0  0  0
    6.7119   -0.4150   23.6966 C   0  0  0  0  0  0  0  0  0  0  0  0
    7.8744    0.3925   23.2000 C   0  0  0  0  0  0  0  0  0  0  0  0
   10.2949   -0.9373   24.3611 C   0  0  0  0  0  0  0  0  0  0  0  0
   10.0622   -2.1434   25.2220 C   0  0  0  0  0  0  0  0  0  0  0  0
   11.2264   -2.8613   25.8376 C   0  0  0  0  0  0  0  0  0  0  0  0
   10.9937   -4.0675   26.6985 Cl  0  0  0  0  0  0  0  0  0  0  0  0
   12.6234   -2.3732   25.5924 C   0  0  0  0  0  0  0  0  0  0  0  0
   12.8561   -1.1671   24.7315 C   0  0  0  0  0  0  0  0  0  0  0  0
   11.6919   -0.4491   24.1159 C   0  0  0  0  0  0  0  0  0  0  0  0
   11.9246    0.7570   23.2550 C   0  0  0  0  0  0  0  0  0  0  0  0
   13.3216    1.2452   23.0097 O   0  0  0  0  0  0  0  0  0  0  0  0
    6.4357   -2.5738   25.2486 C   0  0  0  0  0  0  0  0  0  0  0  0
    5.8074   -2.2726   26.5770 C   0  0  0  0  0  0  0  0  0  0  0  0
    4.9934   -3.3205   27.2764 N   0  0  0  0  0  0  0  0  0  0  0  0
    4.8077   -4.6695   26.6475 C   0  0  0  0  0  0  0  0  0  0  0  0
    5.4359   -4.9707   25.3192 C   0  0  0  0  0  0  0  0  0  0  0  0
    5.2502   -6.3198   24.6903 C   0  0  0  0  0  0  0  0  0  0  0  0
    5.8785   -6.6209   23.3619 C   0  0  0  0  0  0  0  0  0  0  0  0
    6.6925   -5.5730   22.6624 C   0  0  0  0  0  0  0  0  0  0  0  0
    6.8783   -4.2240   23.2913 C   0  0  0  0  0  0  0  0  0  0  0  0
    6.2500   -3.9228   24.6197 C   0  0  0  0  0  0  0  0  0  0  0  0
   10.9930    2.6811   21.7784 C   0  0  0  0  0  0  0  0  0  0  0  0
   10.4272    6.2461   23.4280 C   0  0  0  0  0  0  0  0  0  0  0  0
   10.1436    4.9161   22.7949 N   0  0  0  0  0  0  0  0  0  0  0  0
   11.2767    4.0111   22.4116 C   0  0  0  0  0  0  0  0  0  0  0  0
   12.6934    4.4359   22.6615 O   0  0  0  0  0  0  0  0  0  0  0  0
    9.2138    4.6373   22.6309 H   0  0  0  0  0  0  0  0  0  0  0  0
    7.7945    1.5999   22.3134 C   0  0  0  0  0  0  0  0  0  0  0  0
    7.5839    1.4341   20.8377 O   0  0  0  0  0  0  0  0  0  0  0  0
    6.6459    0.3806   20.3275 C   0  0  0  0  0  0  0  0  0  0  0  0
    5.6573    0.7146   19.2501 C   0  0  0  0  0  0  0  0  0  0  0  0
    4.4125    1.4224   18.8032 C   0  0  0  0  0  0  0  0  0  0  0  0
    5.1895    0.5854   17.8307 C   0  0  0  0  0  0  0  0  0  0  0  0
 29 30  1  0  0  0
 30 31  1  0  0  0
 31 32  2  0  0  0
 31 28  1  0  0  0
 28  1  1  0  0  0
  1  2  1  0  0  0
  3  2  1  0  0  0
  3  4  1  0  0  0
  4  5  2  0  0  0
  4  6  1  0  0  0
  6 18  1  0  0  0
 18 19  2  0  0  0
 19 20  1  0  0  0
 20 21  2  0  0  0
 21 22  1  0  0  0
 22 23  2  0  0  0
 23 24  1  0  0  0
 24 25  2  0  0  0
 25 26  1  0  0  0
 26 27  2  0  0  0
  6  7  1  0  0  0
  7  8  1  0  0  0
  8 34  1  0  0  0
 34 35  1  0  0  0
 35 36  1  0  0  0
 36 37  1  0  0  0
 37 38  1  0  0  0
 38 39  1  0  0  0
  3  9  1  0  0  0
  9 10  2  0  0  0
 10 11  1  0  0  0
 11 12  1  0  0  0
 11 13  2  0  0  0
 13 14  1  0  0  0
 14 15  2  0  0  0
 15 16  1  0  0  0
 16 17  2  0  0  0
 16  1  1  0  0  0
  8  3  1  0  0  0
 39 37  1  0  0  0
 15  9  1  0  0  0
 27 18  1  0  0  0
 27 22  1  0  0  0
 30 33  1  0  0  0
M  END
> <minimizedAffinity>
-8.44089

> <CNNscore>
0.2034309804

> <CNNaffinity>
6.8272805214

> <CNN_VS>
1.3888803720

> <CNNaffinity_variance>
0.1202152222

$$$$



 39 44  0  0  0  0  0  0  0  0999 V2000
    6.8117   -3.4161   23.4056 N   0  0  0  0  0  0  0  0  0  0  0  0
    7.0490   -2.0394   22.8594 C   0  0  0  0  0  0  0  0  0  0  0  0
    8.2992   -1.2940   23.2217 C   0  0  0  0  0  0  0  0  0  0  0  0
    9.4958   -0.4315   23.4942 C   0  0  0  0  0  0  0  0  0  0  0  0
   10.5382   -0.4559   24.1179 O   0  0  0  0  0  0  0  0  0  0  0  0
    9.3177    0.8575   22.7480 N   0  0  0  0  0  0  0  0  0  0  0  0
    8.0110    0.7916   22.0143 C   0  0  0  0  0  0  0  0  0  0  0  0
    7.3816   -0.5381   22.3071 C   0  0  0  0  0  0  0  0  0  0  0  0
    9.3122   -1.9253   24.1302 C   0  0  0  0  0  0  0  0  0  0  0  0
   10.5624   -1.1799   24.4925 C   0  0  0  0  0  0  0  0  0  0  0  0
   11.5753   -1.8111   25.4010 C   0  0  0  0  0  0  0  0  0  0  0  0
   12.8256   -1.0657   25.7633 Cl  0  0  0  0  0  0  0  0  0  0  0  0
   11.3381   -3.1879   25.9472 C   0  0  0  0  0  0  0  0  0  0  0  0
   10.0879   -3.9333   25.5849 C   0  0  0  0  0  0  0  0  0  0  0  0
    9.0749   -3.3020   24.6765 C   0  0  0  0  0  0  0  0  0  0  0  0
    7.8247   -4.0474   24.3141 C   0  0  0  0  0  0  0  0  0  0  0  0
    7.5874   -5.4241   24.8603 O   0  0  0  0  0  0  0  0  0  0  0  0
   10.2777    2.0100   22.7374 C   0  0  0  0  0  0  0  0  0  0  0  0
   11.7424    1.7642   22.5268 C   0  0  0  0  0  0  0  0  0  0  0  0
   12.7024    2.9167   22.5162 N   0  0  0  0  0  0  0  0  0  0  0  0
   12.1977    4.3150   22.7161 C   0  0  0  0  0  0  0  0  0  0  0  0
   10.7330    4.5608   22.9266 C   0  0  0  0  0  0  0  0  0  0  0  0
   10.2283    5.9593   23.1265 C   0  0  0  0  0  0  0  0  0  0  0  0
    8.7636    6.2050   23.3371 C   0  0  0  0  0  0  0  0  0  0  0  0
    7.8036    5.0525   23.3477 C   0  0  0  0  0  0  0  0  0  0  0  0
    8.3083    3.6542   23.1478 C   0  0  0  0  0  0  0  0  0  0  0  0
    9.7730    3.4083   22.9373 C   0  0  0  0  0  0  0  0  0  0  0  0
    5.5614   -4.1616   23.0433 C   0  0  0  0  0  0  0  0  0  0  0  0
    4.6988   -7.5490   24.9225 C   0  0  0  0  0  0  0  0  0  0  0  0
    4.8119   -6.0836   24.6225 N   0  0  0  0  0  0  0  0  0  0  0  0
    5.4484   -5.6269   23.3433 C   0  0  0  0  0  0  0  0  0  0  0  0
    5.9717   -6.6355   22.3641 O   0  0  0  0  0  0  0  0  0  0  0  0
    4.4684   -5.4217   25.2651 H   0  0  0  0  0  0  0  0  0  0  0  0
    6.0656   -1.0262   21.7780 C   0  0  0  0  0  0  0  0  0  0  0  0
    4.8887   -0.0979   21.7227 O   0  0  0  0  0  0  0  0  0  0  0  0
    4.5781    0.7900   22.8911 C   0  0  0  0  0  0  0  0  0  0  0  0
    4.3327    0.1908   24.2441 C   0  0  0  0  0  0  0  0  0  0  0  0
    4.6149   -0.8713   25.2651 C   0  0  0  0  0  0  0  0  0  0  0  0
    3.6255    0.2151   25.5667 C   0  0  0  0  0  0  0  0  0  0  0  0
 29 30  1  0  0  0
 30 31  1  0  0  0
 31 32  2  0  0  0
 31 28  1  0  0  0
 28  1  1  0  0  0
  1  2  1  0  0  0
  3  2  1  0  0  0
  3  4  1  0  0  0
  4  5  2  0  0  0
  4  6  1  0  0  0
  6 18  1  0  0  0
 18 19  2  0  0  0
 19 20  1  0  0  0
 20 21  2  0  0  0
 21 22  1  0  0  0
 22 23  2  0  0  0
 23 24  1  0  0  0
 24 25  2  0  0  0
 25 26  1  0  0  0
 26 27  2  0  0  0
  6  7  1  0  0  0
  7  8  1  0  0  0
  8 34  1  0  0  0
 34 35  1  0  0  0
 35 36  1  0  0  0
 36 37  1  0  0  0
 37 38  1  0  0  0
 38 39  1  0  0  0
  3  9  1  0  0  0
  9 10  2  0  0  0
 10 11  1  0  0  0
 11 12  1  0  0  0
 11 13  2  0  0  0
 13 14  1  0  0  0
 14 15  2  0  0  0
 15 16  1  0  0  0
 16 17  2  0  0  0
 16  1  1  0  0  0
  8  3  1  0  0  0
 39 37  1  0  0  0
 15  9  1  0  0  0
 27 18  1  0  0  0
 27 22  1  0  0  0
 30 33  1  0  0  0
M  END
> <minimizedAffinity>
-7.09664

> <CNNscore>
0.1830621958

> <CNNaffinity>
6.5164337158

> <CNN_VS>
1.1929126978

> <CNNaffinity_variance>
0.1605009586

$$$$



 39 44  0  0  0  0  0  0  0  0999 V2000
   10.5370    0.8385   23.2989 N   0  0  0  0  0  0  0  0  0  0  0  0
    9.1458    0.5130   23.7558 C   0  0  0  0  0  0  0  0  0  0  0  0
    8.9139   -0.6328   24.6956 C   0  0  0  0  0  0  0  0  0  0  0  0
    8.5293   -1.7424   25.6287 C   0  0  0  0  0  0  0  0  0  0  0  0
    9.0405   -2.6413   26.2667 O   0  0  0  0  0  0  0  0  0  0  0  0
    7.0408   -1.7012   25.8094 N   0  0  0  0  0  0  0  0  0  0  0  0
    6.5054   -0.5661   24.9880 C   0  0  0  0  0  0  0  0  0  0  0  0
    7.6630    0.0942   24.2996 C   0  0  0  0  0  0  0  0  0  0  0  0
   10.0731   -1.4531   25.1786 C   0  0  0  0  0  0  0  0  0  0  0  0
    9.8412   -2.5989   26.1184 C   0  0  0  0  0  0  0  0  0  0  0  0
   11.0004   -3.4192   26.6014 C   0  0  0  0  0  0  0  0  0  0  0  0
   10.7685   -4.5651   27.5413 Cl  0  0  0  0  0  0  0  0  0  0  0  0
   12.3916   -3.0937   26.1445 C   0  0  0  0  0  0  0  0  0  0  0  0
   12.6235   -1.9479   25.2047 C   0  0  0  0  0  0  0  0  0  0  0  0
   11.4643   -1.1276   24.7217 C   0  0  0  0  0  0  0  0  0  0  0  0
   11.6962    0.0182   23.7819 C   0  0  0  0  0  0  0  0  0  0  0  0
   13.0873    0.3437   23.3250 O   0  0  0  0  0  0  0  0  0  0  0  0
    6.2300   -2.6318   26.6619 C   0  0  0  0  0  0  0  0  0  0  0  0
    6.0250   -2.3294   28.1167 C   0  0  0  0  0  0  0  0  0  0  0  0
    5.2142   -3.2600   28.9692 N   0  0  0  0  0  0  0  0  0  0  0  0
    4.6085   -4.4930   28.3668 C   0  0  0  0  0  0  0  0  0  0  0  0
    4.8136   -4.7954   26.9120 C   0  0  0  0  0  0  0  0  0  0  0  0
    4.2078   -6.0284   26.3096 C   0  0  0  0  0  0  0  0  0  0  0  0
    4.4129   -6.3307   24.8548 C   0  0  0  0  0  0  0  0  0  0  0  0
    5.2236   -5.4002   24.0023 C   0  0  0  0  0  0  0  0  0  0  0  0
    5.8294   -4.1672   24.6047 C   0  0  0  0  0  0  0  0  0  0  0  0
    5.6243   -3.8648   26.0595 C   0  0  0  0  0  0  0  0  0  0  0  0
   10.7689    1.9844   22.3590 C   0  0  0  0  0  0  0  0  0  0  0  0
    9.5973    5.6401   23.3655 C   0  0  0  0  0  0  0  0  0  0  0  0
    9.5640    4.2351   22.8413 N   0  0  0  0  0  0  0  0  0  0  0  0
   10.8022    3.3894   22.8832 C   0  0  0  0  0  0  0  0  0  0  0  0
   12.0737    3.9488   23.4494 O   0  0  0  0  0  0  0  0  0  0  0  0
    8.7295    3.8680   22.4697 H   0  0  0  0  0  0  0  0  0  0  0  0
    7.5837    1.2744   23.3772 C   0  0  0  0  0  0  0  0  0  0  0  0
    6.4259    2.2233   23.4711 O   0  0  0  0  0  0  0  0  0  0  0  0
    5.3130    2.1503   22.4680 C   0  0  0  0  0  0  0  0  0  0  0  0
    4.8179    3.4013   21.8047 C   0  0  0  0  0  0  0  0  0  0  0  0
    5.0630    4.8006   21.3231 C   0  0  0  0  0  0  0  0  0  0  0  0
    3.7152    4.1688   21.1377 C   0  0  0  0  0  0  0  0  0  0  0  0
 29 30  1  0  0  0
 30 31  1  0  0  0
 31 32  2  0  0  0
 31 28  1  0  0  0
 28  1  1  0  0  0
  1  2  1  0  0  0
  3  2  1  0  0  0
  3  4  1  0  0  0
  4  5  2  0  0  0
  4  6  1  0  0  0
  6 18  1  0  0  0
 18 19  2  0  0  0
 19 20  1  0  0  0
 20 21  2  0  0  0
 21 22  1  0  0  0
 22 23  2  0  0  0
 23 24  1  0  0  0
 24 25  2  0  0  0
 25 26  1  0  0  0
 26 27  2  0  0  0
  6  7  1  0  0  0
  7  8  1  0  0  0
  8 34  1  0  0  0
 34 35  1  0  0  0
 35 36  1  0  0  0
 36 37  1  0  0  0
 37 38  1  0  0  0
 38 39  1  0  0  0
  3  9  1  0  0  0
  9 10  2  0  0  0
 10 11  1  0  0  0
 11 12  1  0  0  0
 11 13  2  0  0  0
 13 14  1  0  0  0
 14 15  2  0  0  0
 15 16  1  0  0  0
 16 17  2  0  0  0
 16  1  1  0  0  0
  8  3  1  0  0  0
 39 37  1  0  0  0
 15  9  1  0  0  0
 27 18  1  0  0  0
 27 22  1  0  0  0
 30 33  1  0  0  0
M  END
> <minimizedAffinity>
-7.59669

> <CNNscore>
0.1674853116

> <CNNaffinity>
6.5120873451

> <CNN_VS>
1.0906789303

> <CNNaffinity_variance>
0.2928547561

$$$$



 39 44  0  0  0  0  0  0  0  0999 V2000
    8.4839    4.3349   23.2103 N   0  0  0  0  0  0  0  0  0  0  0  0
    7.6618    3.1081   23.4731 C   0  0  0  0  0  0  0  0  0  0  0  0
    8.3084    1.7547   23.4587 C   0  0  0  0  0  0  0  0  0  0  0  0
    8.8132    0.3423   23.4770 C   0  0  0  0  0  0  0  0  0  0  0  0
    9.8465   -0.2789   23.3261 O   0  0  0  0  0  0  0  0  0  0  0  0
    7.6540   -0.5605   23.7790 N   0  0  0  0  0  0  0  0  0  0  0  0
    6.4327    0.2940   23.9473 C   0  0  0  0  0  0  0  0  0  0  0  0
    6.8372    1.7248   23.7494 C   0  0  0  0  0  0  0  0  0  0  0  0
    9.7772    1.6281   23.1815 C   0  0  0  0  0  0  0  0  0  0  0  0
   10.4238    0.2747   23.1670 C   0  0  0  0  0  0  0  0  0  0  0  0
   11.8925    0.1482   22.8898 C   0  0  0  0  0  0  0  0  0  0  0  0
   12.5391   -1.2052   22.8754 Cl  0  0  0  0  0  0  0  0  0  0  0  0
   12.7145    1.3750   22.6270 C   0  0  0  0  0  0  0  0  0  0  0  0
   12.0679    2.7284   22.6414 C   0  0  0  0  0  0  0  0  0  0  0  0
   10.5993    2.8549   22.9186 C   0  0  0  0  0  0  0  0  0  0  0  0
    9.9526    4.2083   22.9331 C   0  0  0  0  0  0  0  0  0  0  0  0
   10.7747    5.4352   22.6703 O   0  0  0  0  0  0  0  0  0  0  0  0
    7.7068   -2.0552   23.8926 C   0  0  0  0  0  0  0  0  0  0  0  0
    6.7290   -2.9003   23.1311 C   0  0  0  0  0  0  0  0  0  0  0  0
    6.7818   -4.3951   23.2448 N   0  0  0  0  0  0  0  0  0  0  0  0
    7.8124   -5.0447   24.1199 C   0  0  0  0  0  0  0  0  0  0  0  0
    8.7902   -4.1996   24.8813 C   0  0  0  0  0  0  0  0  0  0  0  0
    9.8208   -4.8493   25.7564 C   0  0  0  0  0  0  0  0  0  0  0  0
   10.7986   -4.0042   26.5178 C   0  0  0  0  0  0  0  0  0  0  0  0
   10.7458   -2.5094   26.4042 C   0  0  0  0  0  0  0  0  0  0  0  0
    9.7152   -1.8598   25.5291 C   0  0  0  0  0  0  0  0  0  0  0  0
    8.7374   -2.7049   24.7677 C   0  0  0  0  0  0  0  0  0  0  0  0
    7.8372    5.6883   23.2248 C   0  0  0  0  0  0  0  0  0  0  0  0
    4.3457    6.5733   24.8910 C   0  0  0  0  0  0  0  0  0  0  0  0
    5.3792    6.2469   23.8539 N   0  0  0  0  0  0  0  0  0  0  0  0
    6.8038    6.0147   24.2618 C   0  0  0  0  0  0  0  0  0  0  0  0
    7.1951    6.1089   25.7069 O   0  0  0  0  0  0  0  0  0  0  0  0
    5.1223    6.1850   22.9055 H   0  0  0  0  0  0  0  0  0  0  0  0
    5.9296    2.9165   23.8284 C   0  0  0  0  0  0  0  0  0  0  0  0
    4.7802    3.0485   22.8738 O   0  0  0  0  0  0  0  0  0  0  0  0
    5.0360    3.3768   21.4327 C   0  0  0  0  0  0  0  0  0  0  0  0
    4.0429    2.9724   20.3837 C   0  0  0  0  0  0  0  0  0  0  0  0
    3.7016    2.1874   19.1519 C   0  0  0  0  0  0  0  0  0  0  0  0
    2.6644    3.0568   19.7986 C   0  0  0  0  0  0  0  0  0  0  0  0
 29 30  1  0  0  0
 30 31  1  0  0  0
 31 32  2  0  0  0
 31 28  1  0  0  0
 28  1  1  0  0  0
  1  2  1  0  0  0
  3  2  1  0  0  0
  3  4  1  0  0  0
  4  5  2  0  0  0
  4  6  1  0  0  0
  6 18  1  0  0  0
 18 19  2  0  0  0
 19 20  1  0  0  0
 20 21  2  0  0  0
 21 22  1  0  0  0
 22 23  2  0  0  0
 23 24  1  0  0  0
 24 25  2  0  0  0
 25 26  1  0  0  0
 26 27  2  0  0  0
  6  7  1  0  0  0
  7  8  1  0  0  0
  8 34  1  0  0  0
 34 35  1  0  0  0
 35 36  1  0  0  0
 36 37  1  0  0  0
 37 38  1  0  0  0
 38 39  1  0  0  0
  3  9  1  0  0  0
  9 10  2  0  0  0
 10 11  1  0  0  0
 11 12  1  0  0  0
 11 13  2  0  0  0
 13 14  1  0  0  0
 14 15  2  0  0  0
 15 16  1  0  0  0
 16 17  2  0  0  0
 16  1  1  0  0  0
  8  3  1  0  0  0
 39 37  1  0  0  0
 15  9  1  0  0  0
 27 18  1  0  0  0
 27 22  1  0  0  0
 30 33  1  0  0  0
M  END
> <minimizedAffinity>
-7.02377

> <CNNscore>
0.1648575962

> <CNNaffinity>
6.6183385849

> <CNN_VS>
1.0910834074

> <CNNaffinity_variance>
0.1411148161

$$$$
