


 39 44  0  0  0  0  0  0  0  0999 V2000
   -7.1018   -1.0932  -23.8549 N   0  0  0  0  0  0  0  0  0  0  0  0
   -7.5386    0.3378  -23.9616 C   0  0  0  0  0  0  0  0  0  0  0  0
   -8.9913    0.6899  -23.8372 C   0  0  0  0  0  0  0  0  0  0  0  0
  -10.4012    1.1915  -23.7339 C   0  0  0  0  0  0  0  0  0  0  0  0
  -11.5283    0.7715  -23.5620 O   0  0  0  0  0  0  0  0  0  0  0  0
  -10.3761    2.6822  -23.8988 N   0  0  0  0  0  0  0  0  0  0  0  0
   -8.9508    3.1019  -24.1041 C   0  0  0  0  0  0  0  0  0  0  0  0
   -8.0949    1.8706  -24.0660 C   0  0  0  0  0  0  0  0  0  0  0  0
  -10.0074   -0.3892  -23.6061 C   0  0  0  0  0  0  0  0  0  0  0  0
  -11.4602   -0.0371  -23.4817 C   0  0  0  0  0  0  0  0  0  0  0  0
  -12.4762   -1.1161  -23.2505 C   0  0  0  0  0  0  0  0  0  0  0  0
  -13.9290   -0.7641  -23.1261 Cl  0  0  0  0  0  0  0  0  0  0  0  0
  -12.0394   -2.5471  -23.1438 C   0  0  0  0  0  0  0  0  0  0  0  0
  -10.5867   -2.8992  -23.2682 C   0  0  0  0  0  0  0  0  0  0  0  0
   -9.5707   -1.8202  -23.4994 C   0  0  0  0  0  0  0  0  0  0  0  0
   -8.1178   -2.1722  -23.6238 C   0  0  0  0  0  0  0  0  0  0  0  0
   -7.6811   -3.6033  -23.5171 O   0  0  0  0  0  0  0  0  0  0  0  0
  -11.5673    3.5932  -23.8644 C   0  0  0  0  0  0  0  0  0  0  0  0
  -12.3698    3.7314  -22.6047 C   0  0  0  0  0  0  0  0  0  0  0  0
  -13.5610    4.6424  -22.5704 N   0  0  0  0  0  0  0  0  0  0  0  0
  -13.9496    5.4152  -23.7958 C   0  0  0  0  0  0  0  0  0  0  0  0
  -13.1471    5.2770  -25.0555 C   0  0  0  0  0  0  0  0  0  0  0  0
  -13.5359    6.0499  -26.2810 C   0  0  0  0  0  0  0  0  0  0  0  0
  -12.7333    5.9116  -27.5407 C   0  0  0  0  0  0  0  0  0  0  0  0
  -11.5422    5.0006  -27.5750 C   0  0  0  0  0  0  0  0  0  0  0  0
  -11.1535    4.2278  -26.3496 C   0  0  0  0  0  0  0  0  0  0  0  0
  -11.9560    4.3660  -25.0899 C   0  0  0  0  0  0  0  0  0  0  0  0
   -5.6490   -1.4452  -23.9794 C   0  0  0  0  0  0  0  0  0  0  0  0
   -4.4688   -4.0989  -26.6841 C   0  0  0  0  0  0  0  0  0  0  0  0
   -4.9922   -3.5154  -25.4052 N   0  0  0  0  0  0  0  0  0  0  0  0
   -5.1256   -2.0286  -25.2583 C   0  0  0  0  0  0  0  0  0  0  0  0
   -4.7354   -1.1252  -26.3904 O   0  0  0  0  0  0  0  0  0  0  0  0
   -5.2483   -4.1084  -24.6621 H   0  0  0  0  0  0  0  0  0  0  0  0
   -6.6044    1.8276  -24.2283 C   0  0  0  0  0  0  0  0  0  0  0  0
   -5.7383    2.7803  -23.4589 O   0  0  0  0  0  0  0  0  0  0  0  0
   -5.7664    2.7755  -21.9591 C   0  0  0  0  0  0  0  0  0  0  0  0
   -4.8263    1.8917  -21.1942 C   0  0  0  0  0  0  0  0  0  0  0  0
   -4.3900    1.2710  -19.9002 C   0  0  0  0  0  0  0  0  0  0  0  0
   -3.6345    0.9814  -21.1633 C   0  0  0  0  0  0  0  0  0  0  0  0
 29 30  1  0  0  0
 30 31  1  0  0  0
 31 32  2  0  0  0
 31 28  1  0  0  0
 28  1  1  0  0  0
  1  2  1  0  0  0
  3  2  1  0  0  0
  3  4  1  0  0  0
  4  5  2  0  0  0
  4  6  1  0  0  0
  6 18  1  0  0  0
 18 19  2  0  0  0
 19 20  1  0  0  0
 20 21  2  0  0  0
 21 22  1  0  0  0
 22 23  2  0  0  0
 23 24  1  0  0  0
 24 25  2  0  0  0
 25 26  1  0  0  0
 26 27  2  0  0  0
  6  7  1  0  0  0
  7  8  1  0  0  0
  8 34  1  0  0  0
 34 35  1  0  0  0
 35 36  1  0  0  0
 36 37  1  0  0  0
 37 38  1  0  0  0
 38 39  1  0  0  0
  3  9  1  0  0  0
  9 10  2  0  0  0
 10 11  1  0  0  0
 11 12  1  0  0  0
 11 13  2  0  0  0
 13 14  1  0  0  0
 14 15  2  0  0  0
 15 16  1  0  0  0
 16 17  2  0  0  0
 16  1  1  0  0  0
  8  3  1  0  0  0
 39 37  1  0  0  0
 15  9  1  0  0  0
 27 18  1  0  0  0
 27 22  1  0  0  0
 30 33  1  0  0  0
M  END
> <minimizedAffinity>
-7.03874

> <CNNscore>
0.6247307658

> <CNNaffinity>
6.7314758301

> <CNN_VS>
4.2053599358

> <CNNaffinity_variance>
0.0729258060

$$$$



 39 44  0  0  0  0  0  0  0  0999 V2000
   -6.9862   -1.3419  -22.5613 N   0  0  0  0  0  0  0  0  0  0  0  0
   -7.0787   -0.0202  -23.2646 C   0  0  0  0  0  0  0  0  0  0  0  0
   -8.4119    0.4966  -23.7177 C   0  0  0  0  0  0  0  0  0  0  0  0
   -9.6686    1.1388  -24.2259 C   0  0  0  0  0  0  0  0  0  0  0  0
  -10.8642    0.9297  -24.2810 O   0  0  0  0  0  0  0  0  0  0  0  0
   -9.2973    2.4473  -24.8585 N   0  0  0  0  0  0  0  0  0  0  0  0
   -7.8112    2.6137  -24.7413 C   0  0  0  0  0  0  0  0  0  0  0  0
   -7.2640    1.4081  -24.0362 C   0  0  0  0  0  0  0  0  0  0  0  0
   -9.6527   -0.3084  -23.4677 C   0  0  0  0  0  0  0  0  0  0  0  0
  -10.9860    0.2083  -23.9208 C   0  0  0  0  0  0  0  0  0  0  0  0
  -12.2267   -0.5967  -23.6708 C   0  0  0  0  0  0  0  0  0  0  0  0
  -13.5600   -0.0799  -24.1239 Cl  0  0  0  0  0  0  0  0  0  0  0  0
  -12.1342   -1.9184  -22.9675 C   0  0  0  0  0  0  0  0  0  0  0  0
  -10.8009   -2.4351  -22.5144 C   0  0  0  0  0  0  0  0  0  0  0  0
   -9.5602   -1.6301  -22.7644 C   0  0  0  0  0  0  0  0  0  0  0  0
   -8.2269   -2.1469  -22.3113 C   0  0  0  0  0  0  0  0  0  0  0  0
   -8.1344   -3.4686  -21.6080 O   0  0  0  0  0  0  0  0  0  0  0  0
  -10.2457    3.4187  -25.4964 C   0  0  0  0  0  0  0  0  0  0  0  0
  -10.1276    3.7321  -26.9585 C   0  0  0  0  0  0  0  0  0  0  0  0
  -11.0760    4.7035  -27.5964 N   0  0  0  0  0  0  0  0  0  0  0  0
  -12.1425    5.3616  -26.7721 C   0  0  0  0  0  0  0  0  0  0  0  0
  -12.2606    5.0482  -25.3099 C   0  0  0  0  0  0  0  0  0  0  0  0
  -13.3272    5.7064  -24.4856 C   0  0  0  0  0  0  0  0  0  0  0  0
  -13.4452    5.3929  -23.0234 C   0  0  0  0  0  0  0  0  0  0  0  0
  -12.4968    4.4215  -22.3856 C   0  0  0  0  0  0  0  0  0  0  0  0
  -11.4303    3.7634  -23.2099 C   0  0  0  0  0  0  0  0  0  0  0  0
  -11.3122    4.0768  -24.6721 C   0  0  0  0  0  0  0  0  0  0  0  0
   -5.6528   -1.8586  -22.1082 C   0  0  0  0  0  0  0  0  0  0  0  0
   -5.5383   -5.8213  -21.9233 C   0  0  0  0  0  0  0  0  0  0  0  0
   -5.6561   -4.4308  -22.4736 N   0  0  0  0  0  0  0  0  0  0  0  0
   -5.5350   -3.2490  -21.5579 C   0  0  0  0  0  0  0  0  0  0  0  0
   -5.2959   -3.4576  -20.0917 O   0  0  0  0  0  0  0  0  0  0  0  0
   -5.8130   -4.2939  -23.4358 H   0  0  0  0  0  0  0  0  0  0  0  0
   -5.8220    1.1580  -23.7074 C   0  0  0  0  0  0  0  0  0  0  0  0
   -4.9599    2.2811  -23.2124 O   0  0  0  0  0  0  0  0  0  0  0  0
   -3.8994    2.0160  -22.1852 C   0  0  0  0  0  0  0  0  0  0  0  0
   -4.2730    1.4322  -20.8549 C   0  0  0  0  0  0  0  0  0  0  0  0
   -5.2862    0.7823  -19.9599 C   0  0  0  0  0  0  0  0  0  0  0  0
   -3.9069    1.0710  -19.4458 C   0  0  0  0  0  0  0  0  0  0  0  0
 29 30  1  0  0  0
 30 31  1  0  0  0
 31 32  2  0  0  0
 31 28  1  0  0  0
 28  1  1  0  0  0
  1  2  1  0  0  0
  3  2  1  0  0  0
  3  4  1  0  0  0
  4  5  2  0  0  0
  4  6  1  0  0  0
  6 18  1  0  0  0
 18 19  2  0  0  0
 19 20  1  0  0  0
 20 21  2  0  0  0
 21 22  1  0  0  0
 22 23  2  0  0  0
 23 24  1  0  0  0
 24 25  2  0  0  0
 25 26  1  0  0  0
 26 27  2  0  0  0
  6  7  1  0  0  0
  7  8  1  0  0  0
  8 34  1  0  0  0
 34 35  1  0  0  0
 35 36  1  0  0  0
 36 37  1  0  0  0
 37 38  1  0  0  0
 38 39  1  0  0  0
  3  9  1  0  0  0
  9 10  2  0  0  0
 10 11  1  0  0  0
 11 12  1  0  0  0
 11 13  2  0  0  0
 13 14  1  0  0  0
 14 15  2  0  0  0
 15 16  1  0  0  0
 16 17  2  0  0  0
 16  1  1  0  0  0
  8  3  1  0  0  0
 39 37  1  0  0  0
 15  9  1  0  0  0
 27 18  1  0  0  0
 27 22  1  0  0  0
 30 33  1  0  0  0
M  END
> <minimizedAffinity>
-6.93482

> <CNNscore>
0.4678961933

> <CNNaffinity>
6.7209343910

> <CNN_VS>
3.1446995735

> <CNNaffinity_variance>
0.0817823038

$$$$



 39 44  0  0  0  0  0  0  0  0999 V2000
   -5.3444   -6.2293  -23.4892 N   0  0  0  0  0  0  0  0  0  0  0  0
   -5.9015   -4.9600  -22.9160 C   0  0  0  0  0  0  0  0  0  0  0  0
   -6.9160   -4.1701  -23.6885 C   0  0  0  0  0  0  0  0  0  0  0  0
   -7.9310   -3.2790  -24.3410 C   0  0  0  0  0  0  0  0  0  0  0  0
   -8.5862   -3.2058  -25.3616 O   0  0  0  0  0  0  0  0  0  0  0  0
   -8.1982   -2.1272  -23.4180 N   0  0  0  0  0  0  0  0  0  0  0  0
   -7.3484   -2.3065  -22.1950 C   0  0  0  0  0  0  0  0  0  0  0  0
   -6.5560   -3.5690  -22.3622 C   0  0  0  0  0  0  0  0  0  0  0  0
   -7.3734   -4.6495  -25.0343 C   0  0  0  0  0  0  0  0  0  0  0  0
   -8.3879   -3.8596  -25.8068 C   0  0  0  0  0  0  0  0  0  0  0  0
   -8.8453   -4.3390  -27.1525 C   0  0  0  0  0  0  0  0  0  0  0  0
   -9.8599   -3.5491  -27.9251 Cl  0  0  0  0  0  0  0  0  0  0  0  0
   -8.2882   -5.6083  -27.7257 C   0  0  0  0  0  0  0  0  0  0  0  0
   -7.2737   -6.3982  -26.9532 C   0  0  0  0  0  0  0  0  0  0  0  0
   -6.8163   -5.9188  -25.6075 C   0  0  0  0  0  0  0  0  0  0  0  0
   -5.8018   -6.7087  -24.8349 C   0  0  0  0  0  0  0  0  0  0  0  0
   -5.2447   -7.9780  -25.4080 O   0  0  0  0  0  0  0  0  0  0  0  0
   -9.1484   -0.9950  -23.6732 C   0  0  0  0  0  0  0  0  0  0  0  0
   -8.6388    0.3005  -24.2319 C   0  0  0  0  0  0  0  0  0  0  0  0
   -9.5890    1.4327  -24.4870 N   0  0  0  0  0  0  0  0  0  0  0  0
  -11.0489    1.2695  -24.1835 C   0  0  0  0  0  0  0  0  0  0  0  0
  -11.5585   -0.0260  -23.6249 C   0  0  0  0  0  0  0  0  0  0  0  0
  -13.0185   -0.1892  -23.3214 C   0  0  0  0  0  0  0  0  0  0  0  0
  -13.5280   -1.4847  -22.7627 C   0  0  0  0  0  0  0  0  0  0  0  0
  -12.5778   -2.6169  -22.5075 C   0  0  0  0  0  0  0  0  0  0  0  0
  -11.1179   -2.4537  -22.8110 C   0  0  0  0  0  0  0  0  0  0  0  0
  -10.6083   -1.1582  -23.3697 C   0  0  0  0  0  0  0  0  0  0  0  0
   -4.3298   -7.0192  -22.7166 C   0  0  0  0  0  0  0  0  0  0  0  0
   -0.6294   -8.3710  -23.1951 C   0  0  0  0  0  0  0  0  0  0  0  0
   -2.0201   -8.2073  -22.6575 N   0  0  0  0  0  0  0  0  0  0  0  0
   -2.9391   -7.1829  -23.2541 C   0  0  0  0  0  0  0  0  0  0  0  0
   -2.4672   -6.3220  -24.3883 O   0  0  0  0  0  0  0  0  0  0  0  0
   -2.3298   -8.7723  -21.9131 H   0  0  0  0  0  0  0  0  0  0  0  0
   -5.5756   -4.1317  -21.3762 C   0  0  0  0  0  0  0  0  0  0  0  0
   -4.9512   -3.2381  -20.3461 O   0  0  0  0  0  0  0  0  0  0  0  0
   -5.8182   -2.3828  -19.4704 C   0  0  0  0  0  0  0  0  0  0  0  0
   -5.3717   -1.0014  -19.0929 C   0  0  0  0  0  0  0  0  0  0  0  0
   -4.8070    0.3328  -19.4814 C   0  0  0  0  0  0  0  0  0  0  0  0
   -5.1633    0.0570  -18.0507 C   0  0  0  0  0  0  0  0  0  0  0  0
 29 30  1  0  0  0
 30 31  1  0  0  0
 31 32  2  0  0  0
 31 28  1  0  0  0
 28  1  1  0  0  0
  1  2  1  0  0  0
  3  2  1  0  0  0
  3  4  1  0  0  0
  4  5  2  0  0  0
  4  6  1  0  0  0
  6 18  1  0  0  0
 18 19  2  0  0  0
 19 20  1  0  0  0
 20 21  2  0  0  0
 21 22  1  0  0  0
 22 23  2  0  0  0
 23 24  1  0  0  0
 24 25  2  0  0  0
 25 26  1  0  0  0
 26 27  2  0  0  0
  6  7  1  0  0  0
  7  8  1  0  0  0
  8 34  1  0  0  0
 34 35  1  0  0  0
 35 36  1  0  0  0
 36 37  1  0  0  0
 37 38  1  0  0  0
 38 39  1  0  0  0
  3  9  1  0  0  0
  9 10  2  0  0  0
 10 11  1  0  0  0
 11 12  1  0  0  0
 11 13  2  0  0  0
 13 14  1  0  0  0
 14 15  2  0  0  0
 15 16  1  0  0  0
 16 17  2  0  0  0
 16  1  1  0  0  0
  8  3  1  0  0  0
 39 37  1  0  0  0
 15  9  1  0  0  0
 27 18  1  0  0  0
 27 22  1  0  0  0
 30 33  1  0  0  0
M  END
> <minimizedAffinity>
-7.80321

> <CNNscore>
0.3263308704

> <CNNaffinity>
6.6631422043

> <CNN_VS>
2.1743888855

> <CNNaffinity_variance>
0.2028082162

$$$$



 39 44  0  0  0  0  0  0  0  0999 V2000
   -6.6460   -4.8795  -22.9445 N   0  0  0  0  0  0  0  0  0  0  0  0
   -7.2260   -3.9188  -23.9399 C   0  0  0  0  0  0  0  0  0  0  0  0
   -7.1101   -2.4409  -23.7112 C   0  0  0  0  0  0  0  0  0  0  0  0
   -7.0717   -0.9443  -23.6177 C   0  0  0  0  0  0  0  0  0  0  0  0
   -6.6602   -0.0677  -22.8838 O   0  0  0  0  0  0  0  0  0  0  0  0
   -7.7682   -0.3865  -24.8235 N   0  0  0  0  0  0  0  0  0  0  0  0
   -8.2369   -1.5384  -25.6622 C   0  0  0  0  0  0  0  0  0  0  0  0
   -7.8302   -2.8081  -24.9748 C   0  0  0  0  0  0  0  0  0  0  0  0
   -6.4141   -1.9236  -22.4872 C   0  0  0  0  0  0  0  0  0  0  0  0
   -6.2982   -0.4457  -22.2585 C   0  0  0  0  0  0  0  0  0  0  0  0
   -5.6023    0.0714  -21.0345 C   0  0  0  0  0  0  0  0  0  0  0  0
   -5.4863    1.5494  -20.8058 Cl  0  0  0  0  0  0  0  0  0  0  0  0
   -5.0223   -0.8893  -20.0392 C   0  0  0  0  0  0  0  0  0  0  0  0
   -5.1383   -2.3672  -20.2678 C   0  0  0  0  0  0  0  0  0  0  0  0
   -5.8342   -2.8843  -21.4918 C   0  0  0  0  0  0  0  0  0  0  0  0
   -5.9501   -4.3623  -21.7205 C   0  0  0  0  0  0  0  0  0  0  0  0
   -5.3702   -5.3230  -20.7252 O   0  0  0  0  0  0  0  0  0  0  0  0
   -7.9618    1.0678  -25.1358 C   0  0  0  0  0  0  0  0  0  0  0  0
   -6.8840    1.8325  -25.8454 C   0  0  0  0  0  0  0  0  0  0  0  0
   -7.0777    3.2868  -26.1576 N   0  0  0  0  0  0  0  0  0  0  0  0
   -8.3491    3.9764  -25.7602 C   0  0  0  0  0  0  0  0  0  0  0  0
   -9.4269    3.2116  -25.0506 C   0  0  0  0  0  0  0  0  0  0  0  0
  -10.6985    3.9012  -24.6533 C   0  0  0  0  0  0  0  0  0  0  0  0
  -11.7762    3.1363  -23.9437 C   0  0  0  0  0  0  0  0  0  0  0  0
  -11.5825    1.6820  -23.6315 C   0  0  0  0  0  0  0  0  0  0  0  0
  -10.3111    0.9925  -24.0288 C   0  0  0  0  0  0  0  0  0  0  0  0
   -9.2333    1.7573  -24.7384 C   0  0  0  0  0  0  0  0  0  0  0  0
   -6.7620   -6.3575  -23.1732 C   0  0  0  0  0  0  0  0  0  0  0  0
   -3.6546   -8.2720  -24.7316 C   0  0  0  0  0  0  0  0  0  0  0  0
   -4.5477   -7.5951  -23.7345 N   0  0  0  0  0  0  0  0  0  0  0  0
   -5.8689   -7.0344  -24.1703 C   0  0  0  0  0  0  0  0  0  0  0  0
   -6.2972   -7.1507  -25.6032 O   0  0  0  0  0  0  0  0  0  0  0  0
   -4.2667   -7.5188  -22.7941 H   0  0  0  0  0  0  0  0  0  0  0  0
   -8.0967   -4.2004  -25.4649 C   0  0  0  0  0  0  0  0  0  0  0  0
   -9.4304   -4.8404  -25.2169 O   0  0  0  0  0  0  0  0  0  0  0  0
  -10.6628   -3.9911  -25.1163 C   0  0  0  0  0  0  0  0  0  0  0  0
  -10.9764   -3.2730  -23.8373 C   0  0  0  0  0  0  0  0  0  0  0  0
  -10.5177   -2.6347  -22.5597 C   0  0  0  0  0  0  0  0  0  0  0  0
  -11.9783   -2.6675  -22.8995 C   0  0  0  0  0  0  0  0  0  0  0  0
 29 30  1  0  0  0
 30 31  1  0  0  0
 31 32  2  0  0  0
 31 28  1  0  0  0
 28  1  1  0  0  0
  1  2  1  0  0  0
  3  2  1  0  0  0
  3  4  1  0  0  0
  4  5  2  0  0  0
  4  6  1  0  0  0
  6 18  1  0  0  0
 18 19  2  0  0  0
 19 20  1  0  0  0
 20 21  2  0  0  0
 21 22  1  0  0  0
 22 23  2  0  0  0
 23 24  1  0  0  0
 24 25  2  0  0  0
 25 26  1  0  0  0
 26 27  2  0  0  0
  6  7  1  0  0  0
  7  8  1  0  0  0
  8 34  1  0  0  0
 34 35  1  0  0  0
 35 36  1  0  0  0
 36 37  1  0  0  0
 37 38  1  0  0  0
 38 39  1  0  0  0
  3  9  1  0  0  0
  9 10  2  0  0  0
 10 11  1  0  0  0
 11 12  1  0  0  0
 11 13  2  0  0  0
 13 14  1  0  0  0
 14 15  2  0  0  0
 15 16  1  0  0  0
 16 17  2  0  0  0
 16  1  1  0  0  0
  8  3  1  0  0  0
 39 37  1  0  0  0
 15  9  1  0  0  0
 27 18  1  0  0  0
 27 22  1  0  0  0
 30 33  1  0  0  0
M  END
> <minimizedAffinity>
-7.24923

> <CNNscore>
0.3080872893

> <CNNaffinity>
6.3335976601

> <CNN_VS>
1.9513009787

> <CNNaffinity_variance>
0.1366898119

$$$$



 39 44  0  0  0  0  0  0  0  0999 V2000
   -6.3886   -0.2599  -22.6423 N   0  0  0  0  0  0  0  0  0  0  0  0
   -6.6906    0.9938  -23.4086 C   0  0  0  0  0  0  0  0  0  0  0  0
   -8.0890    1.2682  -23.8765 C   0  0  0  0  0  0  0  0  0  0  0  0
   -9.4319    1.6760  -24.4061 C   0  0  0  0  0  0  0  0  0  0  0  0
  -10.5788    1.2764  -24.4420 O   0  0  0  0  0  0  0  0  0  0  0  0
   -9.2740    2.9940  -25.1046 N   0  0  0  0  0  0  0  0  0  0  0  0
   -7.8336    3.4009  -25.0067 C   0  0  0  0  0  0  0  0  0  0  0  0
   -7.1012    2.3343  -24.2477 C   0  0  0  0  0  0  0  0  0  0  0  0
   -9.1855    0.2890  -23.5782 C   0  0  0  0  0  0  0  0  0  0  0  0
  -10.5839    0.5635  -24.0462 C   0  0  0  0  0  0  0  0  0  0  0  0
  -11.6803   -0.4157  -23.7479 C   0  0  0  0  0  0  0  0  0  0  0  0
  -13.0789   -0.1413  -24.2158 Cl  0  0  0  0  0  0  0  0  0  0  0  0
  -11.3783   -1.6694  -22.9816 C   0  0  0  0  0  0  0  0  0  0  0  0
   -9.9799   -1.9438  -22.5137 C   0  0  0  0  0  0  0  0  0  0  0  0
   -8.8835   -0.9646  -22.8120 C   0  0  0  0  0  0  0  0  0  0  0  0
   -7.4850   -1.2391  -22.3440 C   0  0  0  0  0  0  0  0  0  0  0  0
   -7.1829   -2.4927  -21.5778 O   0  0  0  0  0  0  0  0  0  0  0  0
  -10.3650    3.7690  -25.7821 C   0  0  0  0  0  0  0  0  0  0  0  0
  -10.3664    3.9136  -27.2751 C   0  0  0  0  0  0  0  0  0  0  0  0
  -11.4575    4.6886  -27.9526 N   0  0  0  0  0  0  0  0  0  0  0  0
  -12.5471    5.3191  -27.1370 C   0  0  0  0  0  0  0  0  0  0  0  0
  -12.5457    5.1745  -25.6440 C   0  0  0  0  0  0  0  0  0  0  0  0
  -13.6354    5.8051  -24.8284 C   0  0  0  0  0  0  0  0  0  0  0  0
  -13.6339    5.6605  -23.3354 C   0  0  0  0  0  0  0  0  0  0  0  0
  -12.5429    4.8854  -22.6579 C   0  0  0  0  0  0  0  0  0  0  0  0
  -11.4533    4.2549  -23.4735 C   0  0  0  0  0  0  0  0  0  0  0  0
  -11.4547    4.3995  -24.9665 C   0  0  0  0  0  0  0  0  0  0  0  0
   -4.9900   -0.5343  -22.1744 C   0  0  0  0  0  0  0  0  0  0  0  0
   -5.0062   -0.0383  -18.2369 C   0  0  0  0  0  0  0  0  0  0  0  0
   -5.4303   -0.4509  -19.6152 N   0  0  0  0  0  0  0  0  0  0  0  0
   -4.5659   -0.1217  -20.7960 C   0  0  0  0  0  0  0  0  0  0  0  0
   -3.2771    0.6201  -20.5985 O   0  0  0  0  0  0  0  0  0  0  0  0
   -6.2762   -0.9377  -19.7449 H   0  0  0  0  0  0  0  0  0  0  0  0
   -5.6380    2.3339  -23.9177 C   0  0  0  0  0  0  0  0  0  0  0  0
   -4.8554    3.6121  -23.9769 O   0  0  0  0  0  0  0  0  0  0  0  0
   -4.7701    4.4961  -22.7680 C   0  0  0  0  0  0  0  0  0  0  0  0
   -5.9257    5.3795  -22.4018 C   0  0  0  0  0  0  0  0  0  0  0  0
   -7.3902    5.5570  -22.1307 C   0  0  0  0  0  0  0  0  0  0  0  0
   -6.4626    6.7322  -22.0388 C   0  0  0  0  0  0  0  0  0  0  0  0
 29 30  1  0  0  0
 30 31  1  0  0  0
 31 32  2  0  0  0
 31 28  1  0  0  0
 28  1  1  0  0  0
  1  2  1  0  0  0
  3  2  1  0  0  0
  3  4  1  0  0  0
  4  5  2  0  0  0
  4  6  1  0  0  0
  6 18  1  0  0  0
 18 19  2  0  0  0
 19 20  1  0  0  0
 20 21  2  0  0  0
 21 22  1  0  0  0
 22 23  2  0  0  0
 23 24  1  0  0  0
 24 25  2  0  0  0
 25 26  1  0  0  0
 26 27  2  0  0  0
  6  7  1  0  0  0
  7  8  1  0  0  0
  8 34  1  0  0  0
 34 35  1  0  0  0
 35 36  1  0  0  0
 36 37  1  0  0  0
 37 38  1  0  0  0
 38 39  1  0  0  0
  3  9  1  0  0  0
  9 10  2  0  0  0
 10 11  1  0  0  0
 11 12  1  0  0  0
 11 13  2  0  0  0
 13 14  1  0  0  0
 14 15  2  0  0  0
 15 16  1  0  0  0
 16 17  2  0  0  0
 16  1  1  0  0  0
  8  3  1  0  0  0
 39 37  1  0  0  0
 15  9  1  0  0  0
 27 18  1  0  0  0
 27 22  1  0  0  0
 30 33  1  0  0  0
M  END
> <minimizedAffinity>
-7.50955

> <CNNscore>
0.2987702191

> <CNNaffinity>
6.2569789886

> <CNN_VS>
1.8693989515

> <CNNaffinity_variance>
0.1460662037

$$$$



 39 44  0  0  0  0  0  0  0  0999 V2000
   -6.6212   -1.1368  -23.8568 N   0  0  0  0  0  0  0  0  0  0  0  0
   -8.0834   -0.8135  -23.9422 C   0  0  0  0  0  0  0  0  0  0  0  0
   -8.5628    0.5764  -23.6452 C   0  0  0  0  0  0  0  0  0  0  0  0
   -9.1871    1.9139  -23.3781 C   0  0  0  0  0  0  0  0  0  0  0  0
   -8.8697    3.0417  -23.0563 O   0  0  0  0  0  0  0  0  0  0  0  0
  -10.6677    1.7831  -23.5805 N   0  0  0  0  0  0  0  0  0  0  0  0
  -10.9583    0.3648  -23.9727 C   0  0  0  0  0  0  0  0  0  0  0  0
   -9.6575   -0.3810  -24.0127 C   0  0  0  0  0  0  0  0  0  0  0  0
   -7.5799    1.6431  -23.2628 C   0  0  0  0  0  0  0  0  0  0  0  0
   -8.0593    3.0330  -22.9658 C   0  0  0  0  0  0  0  0  0  0  0  0
   -7.0764    4.0996  -22.5834 C   0  0  0  0  0  0  0  0  0  0  0  0
   -7.5558    5.4897  -22.2864 Cl  0  0  0  0  0  0  0  0  0  0  0  0
   -5.6142    3.7763  -22.4980 C   0  0  0  0  0  0  0  0  0  0  0  0
   -5.1348    2.3864  -22.7950 C   0  0  0  0  0  0  0  0  0  0  0  0
   -6.1177    1.3198  -23.1774 C   0  0  0  0  0  0  0  0  0  0  0  0
   -5.6383   -0.0702  -23.4744 C   0  0  0  0  0  0  0  0  0  0  0  0
   -4.1760   -0.3935  -23.3890 O   0  0  0  0  0  0  0  0  0  0  0  0
  -11.6797    2.8783  -23.4190 C   0  0  0  0  0  0  0  0  0  0  0  0
  -12.6337    2.8534  -22.2617 C   0  0  0  0  0  0  0  0  0  0  0  0
  -13.6458    3.9486  -22.1003 N   0  0  0  0  0  0  0  0  0  0  0  0
  -13.7039    5.0688  -23.0961 C   0  0  0  0  0  0  0  0  0  0  0  0
  -12.7499    5.0938  -24.2534 C   0  0  0  0  0  0  0  0  0  0  0  0
  -12.8081    6.2141  -25.2492 C   0  0  0  0  0  0  0  0  0  0  0  0
  -11.8540    6.2390  -26.4065 C   0  0  0  0  0  0  0  0  0  0  0  0
  -10.8419    5.1438  -26.5679 C   0  0  0  0  0  0  0  0  0  0  0  0
  -10.7838    4.0236  -25.5721 C   0  0  0  0  0  0  0  0  0  0  0  0
  -11.7378    3.9986  -24.4148 C   0  0  0  0  0  0  0  0  0  0  0  0
   -6.1418   -2.5269  -24.1538 C   0  0  0  0  0  0  0  0  0  0  0  0
   -7.3685   -6.0672  -22.8457 C   0  0  0  0  0  0  0  0  0  0  0  0
   -7.0245   -4.9408  -23.7745 N   0  0  0  0  0  0  0  0  0  0  0  0
   -6.4858   -3.6533  -23.2249 C   0  0  0  0  0  0  0  0  0  0  0  0
   -6.2909   -3.4922  -21.7463 O   0  0  0  0  0  0  0  0  0  0  0  0
   -7.1524   -5.0464  -24.7450 H   0  0  0  0  0  0  0  0  0  0  0  0
   -9.4821   -1.8298  -24.3594 C   0  0  0  0  0  0  0  0  0  0  0  0
  -10.6509   -2.6296  -24.8533 O   0  0  0  0  0  0  0  0  0  0  0  0
  -10.6460   -4.1240  -24.7228 C   0  0  0  0  0  0  0  0  0  0  0  0
  -10.2301   -4.9769  -25.8844 C   0  0  0  0  0  0  0  0  0  0  0  0
   -9.4694   -5.1446  -27.1663 C   0  0  0  0  0  0  0  0  0  0  0  0
  -10.2703   -6.2866  -26.6145 C   0  0  0  0  0  0  0  0  0  0  0  0
 29 30  1  0  0  0
 30 31  1  0  0  0
 31 32  2  0  0  0
 31 28  1  0  0  0
 28  1  1  0  0  0
  1  2  1  0  0  0
  3  2  1  0  0  0
  3  4  1  0  0  0
  4  5  2  0  0  0
  4  6  1  0  0  0
  6 18  1  0  0  0
 18 19  2  0  0  0
 19 20  1  0  0  0
 20 21  2  0  0  0
 21 22  1  0  0  0
 22 23  2  0  0  0
 23 24  1  0  0  0
 24 25  2  0  0  0
 25 26  1  0  0  0
 26 27  2  0  0  0
  6  7  1  0  0  0
  7  8  1  0  0  0
  8 34  1  0  0  0
 34 35  1  0  0  0
 35 36  1  0  0  0
 36 37  1  0  0  0
 37 38  1  0  0  0
 38 39  1  0  0  0
  3  9  1  0  0  0
  9 10  2  0  0  0
 10 11  1  0  0  0
 11 12  1  0  0  0
 11 13  2  0  0  0
 13 14  1  0  0  0
 14 15  2  0  0  0
 15 16  1  0  0  0
 16 17  2  0  0  0
 16  1  1  0  0  0
  8  3  1  0  0  0
 39 37  1  0  0  0
 15  9  1  0  0  0
 27 18  1  0  0  0
 27 22  1  0  0  0
 30 33  1  0  0  0
M  END
> <minimizedAffinity>
-7.04440

> <CNNscore>
0.2914846539

> <CNNaffinity>
6.3021092415

> <CNN_VS>
1.8369681835

> <CNNaffinity_variance>
0.1396289319

$$$$



 39 44  0  0  0  0  0  0  0  0999 V2000
   -6.0534   -4.1827  -21.6899 N   0  0  0  0  0  0  0  0  0  0  0  0
   -6.6186   -3.6549  -22.9752 C   0  0  0  0  0  0  0  0  0  0  0  0
   -6.6346   -2.1781  -23.2369 C   0  0  0  0  0  0  0  0  0  0  0  0
   -6.7179   -0.7347  -23.6366 C   0  0  0  0  0  0  0  0  0  0  0  0
   -6.4373    0.3673  -23.2086 O   0  0  0  0  0  0  0  0  0  0  0  0
   -7.3505   -0.6655  -24.9949 N   0  0  0  0  0  0  0  0  0  0  0  0
   -7.6582   -2.0662  -25.4348 C   0  0  0  0  0  0  0  0  0  0  0  0
   -7.2158   -3.0010  -24.3483 C   0  0  0  0  0  0  0  0  0  0  0  0
   -6.0855   -1.2289  -22.2133 C   0  0  0  0  0  0  0  0  0  0  0  0
   -6.1016    0.2479  -22.4751 C   0  0  0  0  0  0  0  0  0  0  0  0
   -5.5525    1.1970  -21.4515 C   0  0  0  0  0  0  0  0  0  0  0  0
   -5.5685    2.6740  -21.7132 Cl  0  0  0  0  0  0  0  0  0  0  0  0
   -4.9873    0.6692  -20.1662 C   0  0  0  0  0  0  0  0  0  0  0  0
   -4.9713   -0.8077  -19.9045 C   0  0  0  0  0  0  0  0  0  0  0  0
   -5.5204   -1.7567  -20.9280 C   0  0  0  0  0  0  0  0  0  0  0  0
   -5.5043   -3.2337  -20.6663 C   0  0  0  0  0  0  0  0  0  0  0  0
   -4.9391   -3.7615  -19.3810 O   0  0  0  0  0  0  0  0  0  0  0  0
   -7.6268    0.5848  -25.7762 C   0  0  0  0  0  0  0  0  0  0  0  0
   -6.7684    0.9380  -26.9545 C   0  0  0  0  0  0  0  0  0  0  0  0
   -7.0447    2.1883  -27.7358 N   0  0  0  0  0  0  0  0  0  0  0  0
   -8.1795    3.0854  -27.3387 C   0  0  0  0  0  0  0  0  0  0  0  0
   -9.0378    2.7321  -26.1604 C   0  0  0  0  0  0  0  0  0  0  0  0
  -10.1726    3.6293  -25.7633 C   0  0  0  0  0  0  0  0  0  0  0  0
  -11.0310    3.2759  -24.5850 C   0  0  0  0  0  0  0  0  0  0  0  0
  -10.7546    2.0257  -23.8037 C   0  0  0  0  0  0  0  0  0  0  0  0
   -9.6199    1.1286  -24.2008 C   0  0  0  0  0  0  0  0  0  0  0  0
   -8.7615    1.4818  -25.3791 C   0  0  0  0  0  0  0  0  0  0  0  0
   -6.0373   -5.6597  -21.4282 C   0  0  0  0  0  0  0  0  0  0  0  0
   -3.5490   -7.2742  -24.0647 C   0  0  0  0  0  0  0  0  0  0  0  0
   -4.1151   -6.3370  -23.0395 N   0  0  0  0  0  0  0  0  0  0  0  0
   -5.4712   -6.5969  -22.4534 C   0  0  0  0  0  0  0  0  0  0  0  0
   -6.2611   -7.7941  -22.8925 O   0  0  0  0  0  0  0  0  0  0  0  0
   -3.5967   -5.5513  -22.7513 H   0  0  0  0  0  0  0  0  0  0  0  0
   -7.3339   -4.4962  -24.3694 C   0  0  0  0  0  0  0  0  0  0  0  0
   -6.6594   -5.2865  -25.4512 O   0  0  0  0  0  0  0  0  0  0  0  0
   -7.3924   -6.4047  -26.1313 C   0  0  0  0  0  0  0  0  0  0  0  0
   -8.7644   -6.1711  -26.6908 C   0  0  0  0  0  0  0  0  0  0  0  0
  -10.2533   -6.3199  -26.5847 C   0  0  0  0  0  0  0  0  0  0  0  0
   -9.6520   -5.6176  -27.7659 C   0  0  0  0  0  0  0  0  0  0  0  0
 29 30  1  0  0  0
 30 31  1  0  0  0
 31 32  2  0  0  0
 31 28  1  0  0  0
 28  1  1  0  0  0
  1  2  1  0  0  0
  3  2  1  0  0  0
  3  4  1  0  0  0
  4  5  2  0  0  0
  4  6  1  0  0  0
  6 18  1  0  0  0
 18 19  2  0  0  0
 19 20  1  0  0  0
 20 21  2  0  0  0
 21 22  1  0  0  0
 22 23  2  0  0  0
 23 24  1  0  0  0
 24 25  2  0  0  0
 25 26  1  0  0  0
 26 27  2  0  0  0
  6  7  1  0  0  0
  7  8  1  0  0  0
  8 34  1  0  0  0
 34 35  1  0  0  0
 35 36  1  0  0  0
 36 37  1  0  0  0
 37 38  1  0  0  0
 38 39  1  0  0  0
  3  9  1  0  0  0
  9 10  2  0  0  0
 10 11  1  0  0  0
 11 12  1  0  0  0
 11 13  2  0  0  0
 13 14  1  0  0  0
 14 15  2  0  0  0
 15 16  1  0  0  0
 16 17  2  0  0  0
 16  1  1  0  0  0
  8  3  1  0  0  0
 39 37  1  0  0  0
 15  9  1  0  0  0
 27 18  1  0  0  0
 27 22  1  0  0  0
 30 33  1  0  0  0
M  END
> <minimizedAffinity>
-7.49869

> <CNNscore>
0.2901440561

> <CNNaffinity>
6.4313454628

> <CNN_VS>
1.8660166264

> <CNNaffinity_variance>
0.0197491627

$$$$



 39 44  0  0  0  0  0  0  0  0999 V2000
  -11.5735    3.9971  -24.0596 N   0  0  0  0  0  0  0  0  0  0  0  0
  -10.1908    3.4209  -23.9801 C   0  0  0  0  0  0  0  0  0  0  0  0
  -10.0027    1.9554  -23.7218 C   0  0  0  0  0  0  0  0  0  0  0  0
   -9.6600    0.5168  -23.4710 C   0  0  0  0  0  0  0  0  0  0  0  0
  -10.2076   -0.5494  -23.2715 O   0  0  0  0  0  0  0  0  0  0  0  0
   -8.1655    0.3889  -23.4734 N   0  0  0  0  0  0  0  0  0  0  0  0
   -7.5844    1.7486  -23.7258 C   0  0  0  0  0  0  0  0  0  0  0  0
   -8.7199    2.7167  -23.8793 C   0  0  0  0  0  0  0  0  0  0  0  0
  -11.1972    1.0659  -23.5430 C   0  0  0  0  0  0  0  0  0  0  0  0
  -11.0091   -0.3996  -23.2847 C   0  0  0  0  0  0  0  0  0  0  0  0
  -12.2036   -1.2890  -23.1059 C   0  0  0  0  0  0  0  0  0  0  0  0
  -12.0156   -2.7547  -22.8476 Cl  0  0  0  0  0  0  0  0  0  0  0  0
  -13.5863   -0.7129  -23.1854 C   0  0  0  0  0  0  0  0  0  0  0  0
  -13.7744    0.7527  -23.4436 C   0  0  0  0  0  0  0  0  0  0  0  0
  -12.5799    1.6420  -23.6225 C   0  0  0  0  0  0  0  0  0  0  0  0
  -12.7680    3.1077  -23.8808 C   0  0  0  0  0  0  0  0  0  0  0  0
  -14.1506    3.6838  -23.9602 O   0  0  0  0  0  0  0  0  0  0  0  0
   -7.3885   -0.8764  -23.2608 C   0  0  0  0  0  0  0  0  0  0  0  0
   -7.1510   -1.8126  -24.4085 C   0  0  0  0  0  0  0  0  0  0  0  0
   -6.3740   -3.0779  -24.1958 N   0  0  0  0  0  0  0  0  0  0  0  0
   -5.8344   -3.4070  -22.8355 C   0  0  0  0  0  0  0  0  0  0  0  0
   -6.0719   -2.4708  -21.6878 C   0  0  0  0  0  0  0  0  0  0  0  0
   -5.5322   -2.8000  -20.3274 C   0  0  0  0  0  0  0  0  0  0  0  0
   -5.7697   -1.8637  -19.1798 C   0  0  0  0  0  0  0  0  0  0  0  0
   -6.5467   -0.5984  -19.3924 C   0  0  0  0  0  0  0  0  0  0  0  0
   -7.0863   -0.2693  -20.7527 C   0  0  0  0  0  0  0  0  0  0  0  0
   -6.8489   -1.2055  -21.9004 C   0  0  0  0  0  0  0  0  0  0  0  0
  -11.7615    5.4627  -24.3179 C   0  0  0  0  0  0  0  0  0  0  0  0
  -13.9733    6.4241  -27.4697 C   0  0  0  0  0  0  0  0  0  0  0  0
  -13.5883    5.9472  -26.1006 N   0  0  0  0  0  0  0  0  0  0  0  0
  -12.1465    5.9396  -25.6870 C   0  0  0  0  0  0  0  0  0  0  0  0
  -11.0896    6.4089  -26.6424 O   0  0  0  0  0  0  0  0  0  0  0  0
  -14.2819    5.6392  -25.4736 H   0  0  0  0  0  0  0  0  0  0  0  0
   -8.5945    4.1878  -24.1439 C   0  0  0  0  0  0  0  0  0  0  0  0
   -7.3640    4.7279  -24.8103 O   0  0  0  0  0  0  0  0  0  0  0  0
   -7.2103    4.6241  -26.2988 C   0  0  0  0  0  0  0  0  0  0  0  0
   -8.1338    3.7447  -27.0887 C   0  0  0  0  0  0  0  0  0  0  0  0
   -9.4665    3.5094  -27.7356 C   0  0  0  0  0  0  0  0  0  0  0  0
   -8.4005    2.4567  -27.8098 C   0  0  0  0  0  0  0  0  0  0  0  0
 29 30  1  0  0  0
 30 31  1  0  0  0
 31 32  2  0  0  0
 31 28  1  0  0  0
 28  1  1  0  0  0
  1  2  1  0  0  0
  3  2  1  0  0  0
  3  4  1  0  0  0
  4  5  2  0  0  0
  4  6  1  0  0  0
  6 18  1  0  0  0
 18 19  2  0  0  0
 19 20  1  0  0  0
 20 21  2  0  0  0
 21 22  1  0  0  0
 22 23  2  0  0  0
 23 24  1  0  0  0
 24 25  2  0  0  0
 25 26  1  0  0  0
 26 27  2  0  0  0
  6  7  1  0  0  0
  7  8  1  0  0  0
  8 34  1  0  0  0
 34 35  1  0  0  0
 35 36  1  0  0  0
 36 37  1  0  0  0
 37 38  1  0  0  0
 38 39  1  0  0  0
  3  9  1  0  0  0
  9 10  2  0  0  0
 10 11  1  0  0  0
 11 12  1  0  0  0
 11 13  2  0  0  0
 13 14  1  0  0  0
 14 15  2  0  0  0
 15 16  1  0  0  0
 16 17  2  0  0  0
 16  1  1  0  0  0
  8  3  1  0  0  0
 39 37  1  0  0  0
 15  9  1  0  0  0
 27 18  1  0  0  0
 27 22  1  0  0  0
 30 33  1  0  0  0
M  END
> <minimizedAffinity>
-7.25417

> <CNNscore>
0.2744588256

> <CNNaffinity>
6.3061628342

> <CNN_VS>
1.7307820320

> <CNNaffinity_variance>
0.2619595230

$$$$



 39 44  0  0  0  0  0  0  0  0999 V2000
   -9.4980    2.9172  -24.4104 N   0  0  0  0  0  0  0  0  0  0  0  0
   -8.4886    1.8087  -24.4591 C   0  0  0  0  0  0  0  0  0  0  0  0
   -8.9064    0.4002  -24.1569 C   0  0  0  0  0  0  0  0  0  0  0  0
   -9.1749   -1.0495  -23.8804 C   0  0  0  0  0  0  0  0  0  0  0  0
  -10.0926   -1.7840  -23.5728 O   0  0  0  0  0  0  0  0  0  0  0  0
   -7.8858   -1.7990  -24.0433 N   0  0  0  0  0  0  0  0  0  0  0  0
   -6.8206   -0.8125  -24.4205 C   0  0  0  0  0  0  0  0  0  0  0  0
   -7.4514    0.5466  -24.4907 C   0  0  0  0  0  0  0  0  0  0  0  0
  -10.3336    0.1001  -23.8058 C   0  0  0  0  0  0  0  0  0  0  0  0
  -10.7514   -1.3084  -23.5035 C   0  0  0  0  0  0  0  0  0  0  0  0
  -12.1785   -1.6084  -23.1525 C   0  0  0  0  0  0  0  0  0  0  0  0
  -12.5964   -3.0170  -22.8501 Cl  0  0  0  0  0  0  0  0  0  0  0  0
  -13.1879   -0.4999  -23.1037 C   0  0  0  0  0  0  0  0  0  0  0  0
  -12.7701    0.9087  -23.4060 C   0  0  0  0  0  0  0  0  0  0  0  0
  -11.3429    1.2087  -23.7570 C   0  0  0  0  0  0  0  0  0  0  0  0
  -10.9251    2.6173  -24.0593 C   0  0  0  0  0  0  0  0  0  0  0  0
  -11.9344    3.7258  -24.0106 O   0  0  0  0  0  0  0  0  0  0  0  0
   -7.6954   -3.2756  -23.8610 C   0  0  0  0  0  0  0  0  0  0  0  0
   -6.9797   -3.7957  -22.6496 C   0  0  0  0  0  0  0  0  0  0  0  0
   -6.7893   -5.2723  -22.4673 N   0  0  0  0  0  0  0  0  0  0  0  0
   -7.3145   -6.2289  -23.4964 C   0  0  0  0  0  0  0  0  0  0  0  0
   -8.0301   -5.7088  -24.7078 C   0  0  0  0  0  0  0  0  0  0  0  0
   -8.5554   -6.6655  -25.7370 C   0  0  0  0  0  0  0  0  0  0  0  0
   -9.2710   -6.1454  -26.9483 C   0  0  0  0  0  0  0  0  0  0  0  0
   -9.4614   -4.6687  -27.1306 C   0  0  0  0  0  0  0  0  0  0  0  0
   -8.9362   -3.7121  -26.1015 C   0  0  0  0  0  0  0  0  0  0  0  0
   -8.2206   -4.2322  -24.8901 C   0  0  0  0  0  0  0  0  0  0  0  0
   -9.0801    4.3259  -24.7127 C   0  0  0  0  0  0  0  0  0  0  0  0
   -6.8958    5.7546  -21.7232 C   0  0  0  0  0  0  0  0  0  0  0  0
   -8.0349    5.1325  -22.4751 N   0  0  0  0  0  0  0  0  0  0  0  0
   -7.9410    4.9480  -23.9607 C   0  0  0  0  0  0  0  0  0  0  0  0
   -6.7080    5.3856  -24.6945 O   0  0  0  0  0  0  0  0  0  0  0  0
   -8.8441    4.8453  -21.9936 H   0  0  0  0  0  0  0  0  0  0  0  0
   -6.7502    1.8273  -24.8344 C   0  0  0  0  0  0  0  0  0  0  0  0
   -5.4190    2.1420  -24.2191 O   0  0  0  0  0  0  0  0  0  0  0  0
   -5.3331    2.5221  -22.7706 C   0  0  0  0  0  0  0  0  0  0  0  0
   -4.9154    1.5038  -21.7515 C   0  0  0  0  0  0  0  0  0  0  0  0
   -4.4615    0.1146  -21.4136 C   0  0  0  0  0  0  0  0  0  0  0  0
   -4.6459    1.1292  -20.3243 C   0  0  0  0  0  0  0  0  0  0  0  0
 29 30  1  0  0  0
 30 31  1  0  0  0
 31 32  2  0  0  0
 31 28  1  0  0  0
 28  1  1  0  0  0
  1  2  1  0  0  0
  3  2  1  0  0  0
  3  4  1  0  0  0
  4  5  2  0  0  0
  4  6  1  0  0  0
  6 18  1  0  0  0
 18 19  2  0  0  0
 19 20  1  0  0  0
 20 21  2  0  0  0
 21 22  1  0  0  0
 22 23  2  0  0  0
 23 24  1  0  0  0
 24 25  2  0  0  0
 25 26  1  0  0  0
 26 27  2  0  0  0
  6  7  1  0  0  0
  7  8  1  0  0  0
  8 34  1  0  0  0
 34 35  1  0  0  0
 35 36  1  0  0  0
 36 37  1  0  0  0
 37 38  1  0  0  0
 38 39  1  0  0  0
  3  9  1  0  0  0
  9 10  2  0  0  0
 10 11  1  0  0  0
 11 12  1  0  0  0
 11 13  2  0  0  0
 13 14  1  0  0  0
 14 15  2  0  0  0
 15 16  1  0  0  0
 16 17  2  0  0  0
 16  1  1  0  0  0
  8  3  1  0  0  0
 39 37  1  0  0  0
 15  9  1  0  0  0
 27 18  1  0  0  0
 27 22  1  0  0  0
 30 33  1  0  0  0
M  END
> <minimizedAffinity>
-7.08590

> <CNNscore>
0.2724774182

> <CNNaffinity>
6.5493288040

> <CNN_VS>
1.7845442295

> <CNNaffinity_variance>
0.1263353378

$$$$
