


 24 27  0  0  0  0  0  0  0  0999 V2000
   -8.0816   -1.9775  -21.8321 O   0  0  0  0  0  0  0  0  0  0  0  0
   -7.0005   -2.9663  -22.1538 C   0  0  0  0  0  0  0  0  0  0  0  0
   -7.2288   -4.0114  -23.2053 N   0  0  0  0  0  0  0  0  0  0  0  0
   -6.2465   -5.0613  -23.6329 C   0  0  0  0  0  0  0  0  0  0  0  0
   -6.8900   -5.8889  -24.7057 C   0  0  0  0  0  0  0  0  0  0  0  0
   -8.2701   -5.3505  -24.9412 C   0  0  0  0  0  0  0  0  0  0  0  0
   -8.0608   -6.5108  -25.8683 C   0  0  0  0  0  0  0  0  0  0  0  0
   -9.3115   -6.6896  -26.6769 C   0  0  0  0  0  0  0  0  0  0  0  0
  -10.2938   -5.6397  -26.2494 C   0  0  0  0  0  0  0  0  0  0  0  0
   -9.6502   -4.8121  -25.1767 C   0  0  0  0  0  0  0  0  0  0  0  0
   -8.4794   -4.1902  -24.0139 C   0  0  0  0  0  0  0  0  0  0  0  0
   -6.2635   -7.0509  -25.4179 C   0  0  0  0  0  0  0  0  0  0  0  0
   -5.1504   -7.8175  -24.7675 F   0  0  0  0  0  0  0  0  0  0  0  0
   -5.6911   -2.9100  -21.4242 C   0  0  0  0  0  0  0  0  0  0  0  0
   -5.4529   -1.8482  -20.3918 C   0  0  0  0  0  0  0  0  0  0  0  0
   -5.8999   -2.0647  -18.9764 C   0  0  0  0  0  0  0  0  0  0  0  0
   -5.6617   -1.0029  -17.9440 N   0  0  0  0  0  0  0  0  0  0  0  0
   -4.9765    0.2753  -18.3269 C   0  0  0  0  0  0  0  0  0  0  0  0
   -4.5295    0.4918  -19.7424 C   0  0  0  0  0  0  0  0  0  0  0  0
   -3.8444    1.7700  -20.1253 C   0  0  0  0  0  0  0  0  0  0  0  0
   -3.3974    1.9864  -21.5407 C   0  0  0  0  0  0  0  0  0  0  0  0
   -3.6356    0.9247  -22.5731 C   0  0  0  0  0  0  0  0  0  0  0  0
   -4.3208   -0.3535  -22.1902 C   0  0  0  0  0  0  0  0  0  0  0  0
   -4.7677   -0.5700  -20.7748 C   0  0  0  0  0  0  0  0  0  0  0  0
  1  2  2  0  0  0
  2 14  1  0  0  0
 14 15  1  0  0  0
 15 16  2  0  0  0
 16 17  1  0  0  0
 17 18  2  0  0  0
 18 19  1  0  0  0
 19 20  2  0  0  0
 20 21  1  0  0  0
 21 22  2  0  0  0
 22 23  1  0  0  0
 23 24  2  0  0  0
  2  3  1  0  0  0
  3  4  1  0  0  0
  4  5  1  0  0  0
  5 12  1  0  0  0
 12 13  1  0  0  0
  5  6  1  0  0  0
  6  7  1  0  0  0
  7  8  1  0  0  0
  8  9  1  0  0  0
  9 10  1  0  0  0
  6 11  1  0  0  0
 24 15  1  0  0  0
 11  3  1  0  0  0
 24 19  1  0  0  0
 10  6  1  0  0  0
M  END
> <minimizedAffinity>
-7.40948

> <CNNscore>
0.6701279879

> <CNNaffinity>
5.4814863205

> <CNN_VS>
3.6732974052

> <CNNaffinity_variance>
0.2917209566

$$$$



 24 27  0  0  0  0  0  0  0  0999 V2000
   -5.3894   -3.9299  -21.0278 O   0  0  0  0  0  0  0  0  0  0  0  0
   -6.2352   -3.1619  -22.0000 C   0  0  0  0  0  0  0  0  0  0  0  0
   -6.5198   -3.7303  -23.3586 N   0  0  0  0  0  0  0  0  0  0  0  0
   -7.3441   -3.0816  -24.4308 C   0  0  0  0  0  0  0  0  0  0  0  0
   -7.3638   -3.9976  -25.6185 C   0  0  0  0  0  0  0  0  0  0  0  0
   -6.5516   -5.2124  -25.2804 C   0  0  0  0  0  0  0  0  0  0  0  0
   -7.0732   -5.3776  -26.6769 C   0  0  0  0  0  0  0  0  0  0  0  0
   -6.5833   -6.6945  -27.2020 C   0  0  0  0  0  0  0  0  0  0  0  0
   -5.7590   -7.3433  -26.1298 C   0  0  0  0  0  0  0  0  0  0  0  0
   -5.7393   -6.4273  -24.9422 C   0  0  0  0  0  0  0  0  0  0  0  0
   -6.0299   -5.0472  -23.8837 C   0  0  0  0  0  0  0  0  0  0  0  0
   -8.0715   -3.7433  -26.9164 C   0  0  0  0  0  0  0  0  0  0  0  0
   -9.5684   -3.6545  -26.9496 F   0  0  0  0  0  0  0  0  0  0  0  0
   -6.7963   -1.8256  -21.6135 C   0  0  0  0  0  0  0  0  0  0  0  0
   -6.1982   -1.0639  -20.4680 C   0  0  0  0  0  0  0  0  0  0  0  0
   -6.8083   -1.1632  -19.1013 C   0  0  0  0  0  0  0  0  0  0  0  0
   -6.2102   -0.4015  -17.9559 N   0  0  0  0  0  0  0  0  0  0  0  0
   -5.0020    0.4595  -18.1771 C   0  0  0  0  0  0  0  0  0  0  0  0
   -4.3919    0.5589  -19.5439 C   0  0  0  0  0  0  0  0  0  0  0  0
   -3.1837    1.4199  -19.7651 C   0  0  0  0  0  0  0  0  0  0  0  0
   -2.5737    1.5191  -21.1318 C   0  0  0  0  0  0  0  0  0  0  0  0
   -3.1718    0.7574  -22.2773 C   0  0  0  0  0  0  0  0  0  0  0  0
   -4.3799   -0.1036  -22.0560 C   0  0  0  0  0  0  0  0  0  0  0  0
   -4.9900   -0.2029  -20.6893 C   0  0  0  0  0  0  0  0  0  0  0  0
  1  2  2  0  0  0
  2 14  1  0  0  0
 14 15  1  0  0  0
 15 16  2  0  0  0
 16 17  1  0  0  0
 17 18  2  0  0  0
 18 19  1  0  0  0
 19 20  2  0  0  0
 20 21  1  0  0  0
 21 22  2  0  0  0
 22 23  1  0  0  0
 23 24  2  0  0  0
  2  3  1  0  0  0
  3  4  1  0  0  0
  4  5  1  0  0  0
  5 12  1  0  0  0
 12 13  1  0  0  0
  5  6  1  0  0  0
  6  7  1  0  0  0
  7  8  1  0  0  0
  8  9  1  0  0  0
  9 10  1  0  0  0
  6 11  1  0  0  0
 24 15  1  0  0  0
 11  3  1  0  0  0
 24 19  1  0  0  0
 10  6  1  0  0  0
M  END
> <minimizedAffinity>
-7.00964

> <CNNscore>
0.5630842447

> <CNNaffinity>
5.4043111801

> <CNN_VS>
3.0430824757

> <CNNaffinity_variance>
0.2316279411

$$$$



 24 27  0  0  0  0  0  0  0  0999 V2000
   -7.7230    0.2993  -21.0881 O   0  0  0  0  0  0  0  0  0  0  0  0
   -6.8963   -0.9471  -21.2025 C   0  0  0  0  0  0  0  0  0  0  0  0
   -7.3483   -2.0680  -22.0909 N   0  0  0  0  0  0  0  0  0  0  0  0
   -6.6306   -3.3676  -22.3051 C   0  0  0  0  0  0  0  0  0  0  0  0
   -7.4361   -4.1889  -23.2677 C   0  0  0  0  0  0  0  0  0  0  0  0
   -8.6517   -3.3968  -23.6486 C   0  0  0  0  0  0  0  0  0  0  0  0
   -8.7060   -4.7075  -24.3758 C   0  0  0  0  0  0  0  0  0  0  0  0
   -9.9550   -4.7255  -25.2061 C   0  0  0  0  0  0  0  0  0  0  0  0
  -10.6727   -3.4259  -24.9920 C   0  0  0  0  0  0  0  0  0  0  0  0
   -9.8672   -2.6047  -24.0294 C   0  0  0  0  0  0  0  0  0  0  0  0
   -8.5974   -2.0860  -22.9212 C   0  0  0  0  0  0  0  0  0  0  0  0
   -7.0873   -5.5612  -23.7626 C   0  0  0  0  0  0  0  0  0  0  0  0
   -7.2727   -6.7507  -22.8680 F   0  0  0  0  0  0  0  0  0  0  0  0
   -5.6176   -1.0727  -20.4284 C   0  0  0  0  0  0  0  0  0  0  0  0
   -4.6018    0.0302  -20.4742 C   0  0  0  0  0  0  0  0  0  0  0  0
   -4.2697    0.7961  -19.2280 C   0  0  0  0  0  0  0  0  0  0  0  0
   -3.2540    1.8989  -19.2737 N   0  0  0  0  0  0  0  0  0  0  0  0
   -2.5703    2.2358  -20.5656 C   0  0  0  0  0  0  0  0  0  0  0  0
   -2.9024    1.4698  -21.8119 C   0  0  0  0  0  0  0  0  0  0  0  0
   -2.2188    1.8067  -23.1038 C   0  0  0  0  0  0  0  0  0  0  0  0
   -2.5509    1.0408  -24.3500 C   0  0  0  0  0  0  0  0  0  0  0  0
   -3.5666   -0.0620  -24.3043 C   0  0  0  0  0  0  0  0  0  0  0  0
   -4.2503   -0.3989  -23.0124 C   0  0  0  0  0  0  0  0  0  0  0  0
   -3.9182    0.3670  -21.7662 C   0  0  0  0  0  0  0  0  0  0  0  0
  1  2  2  0  0  0
  2 14  1  0  0  0
 14 15  1  0  0  0
 15 16  2  0  0  0
 16 17  1  0  0  0
 17 18  2  0  0  0
 18 19  1  0  0  0
 19 20  2  0  0  0
 20 21  1  0  0  0
 21 22  2  0  0  0
 22 23  1  0  0  0
 23 24  2  0  0  0
  2  3  1  0  0  0
  3  4  1  0  0  0
  4  5  1  0  0  0
  5 12  1  0  0  0
 12 13  1  0  0  0
  5  6  1  0  0  0
  6  7  1  0  0  0
  7  8  1  0  0  0
  8  9  1  0  0  0
  9 10  1  0  0  0
  6 11  1  0  0  0
 24 15  1  0  0  0
 11  3  1  0  0  0
 24 19  1  0  0  0
 10  6  1  0  0  0
M  END
> <minimizedAffinity>
-6.48766

> <CNNscore>
0.5429872274

> <CNNaffinity>
5.3446998596

> <CNN_VS>
2.9021036625

> <CNNaffinity_variance>
0.1800423563

$$$$



 24 27  0  0  0  0  0  0  0  0999 V2000
   -8.3224   -0.6109  -25.0857 O   0  0  0  0  0  0  0  0  0  0  0  0
   -7.3750   -1.5846  -24.4498 C   0  0  0  0  0  0  0  0  0  0  0  0
   -7.5825   -3.0593  -24.6297 N   0  0  0  0  0  0  0  0  0  0  0  0
   -6.7225   -4.1469  -24.0574 C   0  0  0  0  0  0  0  0  0  0  0  0
   -7.2949   -5.4651  -24.4874 C   0  0  0  0  0  0  0  0  0  0  0  0
   -8.5086   -5.1921  -25.3255 C   0  0  0  0  0  0  0  0  0  0  0  0
   -8.3309   -6.6788  -25.2376 C   0  0  0  0  0  0  0  0  0  0  0  0
   -9.4348   -7.3248  -26.0213 C   0  0  0  0  0  0  0  0  0  0  0  0
  -10.2947   -6.2371  -26.5935 C   0  0  0  0  0  0  0  0  0  0  0  0
   -9.7224   -4.9191  -26.1635 C   0  0  0  0  0  0  0  0  0  0  0  0
   -8.6863   -3.7052  -25.4134 C   0  0  0  0  0  0  0  0  0  0  0  0
   -6.7493   -6.8185  -24.1404 C   0  0  0  0  0  0  0  0  0  0  0  0
   -6.5681   -7.2081  -22.7033 F   0  0  0  0  0  0  0  0  0  0  0  0
   -6.2201   -1.0837  -23.6341 C   0  0  0  0  0  0  0  0  0  0  0  0
   -6.3725   -0.8976  -22.1535 C   0  0  0  0  0  0  0  0  0  0  0  0
   -7.5760   -1.4489  -21.4482 C   0  0  0  0  0  0  0  0  0  0  0  0
   -7.7283   -1.2629  -19.9676 N   0  0  0  0  0  0  0  0  0  0  0  0
   -6.6771   -0.5255  -19.1923 C   0  0  0  0  0  0  0  0  0  0  0  0
   -5.4734    0.0259  -19.8977 C   0  0  0  0  0  0  0  0  0  0  0  0
   -4.4222    0.7633  -19.1224 C   0  0  0  0  0  0  0  0  0  0  0  0
   -3.2187    1.3146  -19.8277 C   0  0  0  0  0  0  0  0  0  0  0  0
   -3.0664    1.1285  -21.3083 C   0  0  0  0  0  0  0  0  0  0  0  0
   -4.1176    0.3911  -22.0836 C   0  0  0  0  0  0  0  0  0  0  0  0
   -5.3211   -0.1602  -21.3783 C   0  0  0  0  0  0  0  0  0  0  0  0
  1  2  2  0  0  0
  2 14  1  0  0  0
 14 15  1  0  0  0
 15 16  2  0  0  0
 16 17  1  0  0  0
 17 18  2  0  0  0
 18 19  1  0  0  0
 19 20  2  0  0  0
 20 21  1  0  0  0
 21 22  2  0  0  0
 22 23  1  0  0  0
 23 24  2  0  0  0
  2  3  1  0  0  0
  3  4  1  0  0  0
  4  5  1  0  0  0
  5 12  1  0  0  0
 12 13  1  0  0  0
  5  6  1  0  0  0
  6  7  1  0  0  0
  7  8  1  0  0  0
  8  9  1  0  0  0
  9 10  1  0  0  0
  6 11  1  0  0  0
 24 15  1  0  0  0
 11  3  1  0  0  0
 24 19  1  0  0  0
 10  6  1  0  0  0
M  END
> <minimizedAffinity>
-6.79390

> <CNNscore>
0.4587990046

> <CNNaffinity>
5.5354013443

> <CNN_VS>
2.5396366119

> <CNNaffinity_variance>
0.3227040768

$$$$



 24 27  0  0  0  0  0  0  0  0999 V2000
   -8.2537   -3.3659  -22.1758 O   0  0  0  0  0  0  0  0  0  0  0  0
   -7.8991   -1.9190  -22.3514 C   0  0  0  0  0  0  0  0  0  0  0  0
   -8.9652   -0.9222  -22.6979 N   0  0  0  0  0  0  0  0  0  0  0  0
   -8.7627    0.5497  -22.9038 C   0  0  0  0  0  0  0  0  0  0  0  0
  -10.0933    1.1592  -23.2325 C   0  0  0  0  0  0  0  0  0  0  0  0
  -11.1182    0.0639  -23.2298 C   0  0  0  0  0  0  0  0  0  0  0  0
  -11.8153    1.3503  -23.5602 C   0  0  0  0  0  0  0  0  0  0  0  0
  -13.2711    1.0501  -23.7617 C   0  0  0  0  0  0  0  0  0  0  0  0
  -13.4736   -0.4219  -23.5558 C   0  0  0  0  0  0  0  0  0  0  0  0
  -12.1431   -1.0313  -23.2271 C   0  0  0  0  0  0  0  0  0  0  0  0
  -10.4210   -1.2224  -22.8994 C   0  0  0  0  0  0  0  0  0  0  0  0
  -10.3533    2.6093  -23.5144 C   0  0  0  0  0  0  0  0  0  0  0  0
  -11.7372    3.0687  -23.8658 F   0  0  0  0  0  0  0  0  0  0  0  0
   -6.4786   -1.4688  -22.1805 C   0  0  0  0  0  0  0  0  0  0  0  0
   -6.0357   -0.8599  -20.8832 C   0  0  0  0  0  0  0  0  0  0  0  0
   -6.8162   -1.1178  -19.6285 C   0  0  0  0  0  0  0  0  0  0  0  0
   -6.3733   -0.5088  -18.3312 N   0  0  0  0  0  0  0  0  0  0  0  0
   -5.1500    0.3580  -18.2885 C   0  0  0  0  0  0  0  0  0  0  0  0
   -4.3694    0.6160  -19.5432 C   0  0  0  0  0  0  0  0  0  0  0  0
   -3.1460    1.4828  -19.5006 C   0  0  0  0  0  0  0  0  0  0  0  0
   -2.3655    1.7407  -20.7552 C   0  0  0  0  0  0  0  0  0  0  0  0
   -2.8083    1.1317  -22.0526 C   0  0  0  0  0  0  0  0  0  0  0  0
   -4.0317    0.2649  -22.0952 C   0  0  0  0  0  0  0  0  0  0  0  0
   -4.8122    0.0070  -20.8405 C   0  0  0  0  0  0  0  0  0  0  0  0
  1  2  2  0  0  0
  2 14  1  0  0  0
 14 15  1  0  0  0
 15 16  2  0  0  0
 16 17  1  0  0  0
 17 18  2  0  0  0
 18 19  1  0  0  0
 19 20  2  0  0  0
 20 21  1  0  0  0
 21 22  2  0  0  0
 22 23  1  0  0  0
 23 24  2  0  0  0
  2  3  1  0  0  0
  3  4  1  0  0  0
  4  5  1  0  0  0
  5 12  1  0  0  0
 12 13  1  0  0  0
  5  6  1  0  0  0
  6  7  1  0  0  0
  7  8  1  0  0  0
  8  9  1  0  0  0
  9 10  1  0  0  0
  6 11  1  0  0  0
 24 15  1  0  0  0
 11  3  1  0  0  0
 24 19  1  0  0  0
 10  6  1  0  0  0
M  END
> <minimizedAffinity>
-7.38529

> <CNNscore>
0.4280428886

> <CNNaffinity>
5.4112224579

> <CNN_VS>
2.3162353039

> <CNNaffinity_variance>
0.3018067181

$$$$



 24 27  0  0  0  0  0  0  0  0999 V2000
   -5.2353   -3.5394  -20.8144 O   0  0  0  0  0  0  0  0  0  0  0  0
   -6.3954   -2.7325  -21.3176 C   0  0  0  0  0  0  0  0  0  0  0  0
   -7.2841   -3.2860  -22.3918 N   0  0  0  0  0  0  0  0  0  0  0  0
   -8.4751   -2.5991  -22.9916 C   0  0  0  0  0  0  0  0  0  0  0  0
   -9.0650   -3.5121  -24.0253 C   0  0  0  0  0  0  0  0  0  0  0  0
   -8.2385   -4.7633  -24.0643 C   0  0  0  0  0  0  0  0  0  0  0  0
   -9.3391   -4.9030  -25.0738 C   0  0  0  0  0  0  0  0  0  0  0  0
   -9.1929   -6.2406  -25.7368 C   0  0  0  0  0  0  0  0  0  0  0  0
   -8.0019   -6.9275  -25.1370 C   0  0  0  0  0  0  0  0  0  0  0  0
   -7.4121   -6.0145  -24.1034 C   0  0  0  0  0  0  0  0  0  0  0  0
   -7.1379   -4.6235  -23.0548 C   0  0  0  0  0  0  0  0  0  0  0  0
  -10.2697   -3.2244  -24.8713 C   0  0  0  0  0  0  0  0  0  0  0  0
  -11.2852   -2.2200  -24.4134 F   0  0  0  0  0  0  0  0  0  0  0  0
   -6.6667   -1.3722  -20.7467 C   0  0  0  0  0  0  0  0  0  0  0  0
   -5.5271   -0.4460  -20.4414 C   0  0  0  0  0  0  0  0  0  0  0  0
   -5.3287    0.0643  -19.0449 C   0  0  0  0  0  0  0  0  0  0  0  0
   -4.1890    0.9905  -18.7396 N   0  0  0  0  0  0  0  0  0  0  0  0
   -3.2477    1.4065  -19.8308 C   0  0  0  0  0  0  0  0  0  0  0  0
   -3.4460    0.8963  -21.2274 C   0  0  0  0  0  0  0  0  0  0  0  0
   -2.5047    1.3123  -22.3186 C   0  0  0  0  0  0  0  0  0  0  0  0
   -2.7030    0.8020  -23.7152 C   0  0  0  0  0  0  0  0  0  0  0  0
   -3.8427   -0.1242  -24.0204 C   0  0  0  0  0  0  0  0  0  0  0  0
   -4.7841   -0.5402  -22.9292 C   0  0  0  0  0  0  0  0  0  0  0  0
   -4.5857   -0.0300  -21.5327 C   0  0  0  0  0  0  0  0  0  0  0  0
  1  2  2  0  0  0
  2 14  1  0  0  0
 14 15  1  0  0  0
 15 16  2  0  0  0
 16 17  1  0  0  0
 17 18  2  0  0  0
 18 19  1  0  0  0
 19 20  2  0  0  0
 20 21  1  0  0  0
 21 22  2  0  0  0
 22 23  1  0  0  0
 23 24  2  0  0  0
  2  3  1  0  0  0
  3  4  1  0  0  0
  4  5  1  0  0  0
  5 12  1  0  0  0
 12 13  1  0  0  0
  5  6  1  0  0  0
  6  7  1  0  0  0
  7  8  1  0  0  0
  8  9  1  0  0  0
  9 10  1  0  0  0
  6 11  1  0  0  0
 24 15  1  0  0  0
 11  3  1  0  0  0
 24 19  1  0  0  0
 10  6  1  0  0  0
M  END
> <minimizedAffinity>
-6.66337

> <CNNscore>
0.4179183245

> <CNNaffinity>
5.2950544357

> <CNN_VS>
2.2129001617

> <CNNaffinity_variance>
0.3410799503

$$$$



 24 27  0  0  0  0  0  0  0  0999 V2000
  -10.7679   -1.1594  -23.3173 O   0  0  0  0  0  0  0  0  0  0  0  0
   -9.5752   -1.9223  -22.8217 C   0  0  0  0  0  0  0  0  0  0  0  0
   -9.1980   -3.2243  -23.4638 N   0  0  0  0  0  0  0  0  0  0  0  0
   -8.0383   -4.0941  -23.0783 C   0  0  0  0  0  0  0  0  0  0  0  0
   -8.0377   -5.2926  -23.9803 C   0  0  0  0  0  0  0  0  0  0  0  0
   -9.1971   -5.1635  -24.9234 C   0  0  0  0  0  0  0  0  0  0  0  0
   -8.4800   -6.4416  -25.2426 C   0  0  0  0  0  0  0  0  0  0  0  0
   -9.1962   -7.1025  -26.3829 C   0  0  0  0  0  0  0  0  0  0  0  0
  -10.3558   -6.2327  -26.7684 C   0  0  0  0  0  0  0  0  0  0  0  0
  -10.3564   -5.0343  -25.8664 C   0  0  0  0  0  0  0  0  0  0  0  0
   -9.9141   -3.8852  -24.6041 C   0  0  0  0  0  0  0  0  0  0  0  0
   -7.0511   -6.4219  -23.9455 C   0  0  0  0  0  0  0  0  0  0  0  0
   -7.1208   -7.4452  -22.8511 F   0  0  0  0  0  0  0  0  0  0  0  0
   -8.7599   -1.3830  -21.6840 C   0  0  0  0  0  0  0  0  0  0  0  0
   -7.6214   -0.4450  -21.9556 C   0  0  0  0  0  0  0  0  0  0  0  0
   -7.4743    0.1837  -23.3096 C   0  0  0  0  0  0  0  0  0  0  0  0
   -6.3358    1.1218  -23.5812 N   0  0  0  0  0  0  0  0  0  0  0  0
   -5.3444    1.4312  -22.4990 C   0  0  0  0  0  0  0  0  0  0  0  0
   -5.4915    0.8026  -21.1450 C   0  0  0  0  0  0  0  0  0  0  0  0
   -4.5001    1.1121  -20.0627 C   0  0  0  0  0  0  0  0  0  0  0  0
   -4.6472    0.4835  -18.7088 C   0  0  0  0  0  0  0  0  0  0  0  0
   -5.7857   -0.4546  -18.4371 C   0  0  0  0  0  0  0  0  0  0  0  0
   -6.7771   -0.7641  -19.5194 C   0  0  0  0  0  0  0  0  0  0  0  0
   -6.6300   -0.1355  -20.8733 C   0  0  0  0  0  0  0  0  0  0  0  0
  1  2  2  0  0  0
  2 14  1  0  0  0
 14 15  1  0  0  0
 15 16  2  0  0  0
 16 17  1  0  0  0
 17 18  2  0  0  0
 18 19  1  0  0  0
 19 20  2  0  0  0
 20 21  1  0  0  0
 21 22  2  0  0  0
 22 23  1  0  0  0
 23 24  2  0  0  0
  2  3  1  0  0  0
  3  4  1  0  0  0
  4  5  1  0  0  0
  5 12  1  0  0  0
 12 13  1  0  0  0
  5  6  1  0  0  0
  6  7  1  0  0  0
  7  8  1  0  0  0
  8  9  1  0  0  0
  9 10  1  0  0  0
  6 11  1  0  0  0
 24 15  1  0  0  0
 11  3  1  0  0  0
 24 19  1  0  0  0
 10  6  1  0  0  0
M  END
> <minimizedAffinity>
-7.24977

> <CNNscore>
0.3757939935

> <CNNaffinity>
5.4011783600

> <CNN_VS>
2.0297303200

> <CNNaffinity_variance>
0.3883023560

$$$$



 24 27  0  0  0  0  0  0  0  0999 V2000
   -8.6818   -2.3536  -26.3606 O   0  0  0  0  0  0  0  0  0  0  0  0
   -8.3116   -2.6247  -24.9324 C   0  0  0  0  0  0  0  0  0  0  0  0
   -7.4691   -3.8174  -24.5895 N   0  0  0  0  0  0  0  0  0  0  0  0
   -7.0215   -4.2146  -23.2140 C   0  0  0  0  0  0  0  0  0  0  0  0
   -6.2020   -5.4650  -23.3363 C   0  0  0  0  0  0  0  0  0  0  0  0
   -6.1431   -5.8406  -24.7873 C   0  0  0  0  0  0  0  0  0  0  0  0
   -5.3600   -6.8588  -24.0128 C   0  0  0  0  0  0  0  0  0  0  0  0
   -4.8171   -7.8637  -24.9851 C   0  0  0  0  0  0  0  0  0  0  0  0
   -5.2647   -7.4665  -26.3605 C   0  0  0  0  0  0  0  0  0  0  0  0
   -6.0841   -6.2162  -26.2383 C   0  0  0  0  0  0  0  0  0  0  0  0
   -6.9261   -4.8223  -25.5618 C   0  0  0  0  0  0  0  0  0  0  0  0
   -5.5551   -6.2092  -22.2059 C   0  0  0  0  0  0  0  0  0  0  0  0
   -6.3960   -7.0104  -21.2569 F   0  0  0  0  0  0  0  0  0  0  0  0
   -8.7839   -1.7031  -23.8473 C   0  0  0  0  0  0  0  0  0  0  0  0
  -10.2399   -1.6481  -23.4910 C   0  0  0  0  0  0  0  0  0  0  0  0
  -10.9539   -2.8945  -23.0589 C   0  0  0  0  0  0  0  0  0  0  0  0
  -12.4099   -2.8396  -22.7026 N   0  0  0  0  0  0  0  0  0  0  0  0
  -13.1520   -1.5383  -22.7783 C   0  0  0  0  0  0  0  0  0  0  0  0
  -12.4380   -0.2918  -23.2104 C   0  0  0  0  0  0  0  0  0  0  0  0
  -13.1801    1.0096  -23.2861 C   0  0  0  0  0  0  0  0  0  0  0  0
  -12.4662    2.2560  -23.7182 C   0  0  0  0  0  0  0  0  0  0  0  0
  -11.0102    2.2010  -24.0745 C   0  0  0  0  0  0  0  0  0  0  0  0
  -10.2681    0.8997  -23.9988 C   0  0  0  0  0  0  0  0  0  0  0  0
  -10.9820   -0.3467  -23.5667 C   0  0  0  0  0  0  0  0  0  0  0  0
  1  2  2  0  0  0
  2 14  1  0  0  0
 14 15  1  0  0  0
 15 16  2  0  0  0
 16 17  1  0  0  0
 17 18  2  0  0  0
 18 19  1  0  0  0
 19 20  2  0  0  0
 20 21  1  0  0  0
 21 22  2  0  0  0
 22 23  1  0  0  0
 23 24  2  0  0  0
  2  3  1  0  0  0
  3  4  1  0  0  0
  4  5  1  0  0  0
  5 12  1  0  0  0
 12 13  1  0  0  0
  5  6  1  0  0  0
  6  7  1  0  0  0
  7  8  1  0  0  0
  8  9  1  0  0  0
  9 10  1  0  0  0
  6 11  1  0  0  0
 24 15  1  0  0  0
 11  3  1  0  0  0
 24 19  1  0  0  0
 10  6  1  0  0  0
M  END
> <minimizedAffinity>
-6.85984

> <CNNscore>
0.3531180024

> <CNNaffinity>
5.3730211258

> <CNN_VS>
1.8973104954

> <CNNaffinity_variance>
0.1838724315

$$$$



 24 27  0  0  0  0  0  0  0  0999 V2000
   -7.1832   -0.1957  -24.2987 O   0  0  0  0  0  0  0  0  0  0  0  0
   -7.4394   -1.1877  -23.2030 C   0  0  0  0  0  0  0  0  0  0  0  0
   -7.2069   -2.6496  -23.4453 N   0  0  0  0  0  0  0  0  0  0  0  0
   -7.4182   -3.7527  -22.4511 C   0  0  0  0  0  0  0  0  0  0  0  0
   -7.0642   -5.0499  -23.1157 C   0  0  0  0  0  0  0  0  0  0  0  0
   -6.6342   -4.7486  -24.5208 C   0  0  0  0  0  0  0  0  0  0  0  0
   -6.5460   -6.2320  -24.3171 C   0  0  0  0  0  0  0  0  0  0  0  0
   -6.0614   -6.8476  -25.5963 C   0  0  0  0  0  0  0  0  0  0  0  0
   -5.8501   -5.7445  -26.5905 C   0  0  0  0  0  0  0  0  0  0  0  0
   -6.2041   -4.4473  -25.9259 C   0  0  0  0  0  0  0  0  0  0  0  0
   -6.7224   -3.2652  -24.7245 C   0  0  0  0  0  0  0  0  0  0  0  0
   -7.1289   -6.4097  -22.4859 C   0  0  0  0  0  0  0  0  0  0  0  0
   -6.3345   -6.7012  -21.2474 F   0  0  0  0  0  0  0  0  0  0  0  0
   -7.9281   -0.7176  -21.8650 C   0  0  0  0  0  0  0  0  0  0  0  0
   -6.9860   -0.6641  -20.6990 C   0  0  0  0  0  0  0  0  0  0  0  0
   -7.1855   -1.5837  -19.5308 C   0  0  0  0  0  0  0  0  0  0  0  0
   -6.2434   -1.5301  -18.3648 N   0  0  0  0  0  0  0  0  0  0  0  0
   -5.1020   -0.5570  -18.3668 C   0  0  0  0  0  0  0  0  0  0  0  0
   -4.9025    0.3626  -19.5350 C   0  0  0  0  0  0  0  0  0  0  0  0
   -3.7610    1.3358  -19.5370 C   0  0  0  0  0  0  0  0  0  0  0  0
   -3.5616    2.2554  -20.7051 C   0  0  0  0  0  0  0  0  0  0  0  0
   -4.5036    2.2018  -21.8712 C   0  0  0  0  0  0  0  0  0  0  0  0
   -5.6451    1.2287  -21.8692 C   0  0  0  0  0  0  0  0  0  0  0  0
   -5.8445    0.3091  -20.7010 C   0  0  0  0  0  0  0  0  0  0  0  0
  1  2  2  0  0  0
  2 14  1  0  0  0
 14 15  1  0  0  0
 15 16  2  0  0  0
 16 17  1  0  0  0
 17 18  2  0  0  0
 18 19  1  0  0  0
 19 20  2  0  0  0
 20 21  1  0  0  0
 21 22  2  0  0  0
 22 23  1  0  0  0
 23 24  2  0  0  0
  2  3  1  0  0  0
  3  4  1  0  0  0
  4  5  1  0  0  0
  5 12  1  0  0  0
 12 13  1  0  0  0
  5  6  1  0  0  0
  6  7  1  0  0  0
  7  8  1  0  0  0
  8  9  1  0  0  0
  9 10  1  0  0  0
  6 11  1  0  0  0
 24 15  1  0  0  0
 11  3  1  0  0  0
 24 19  1  0  0  0
 10  6  1  0  0  0
M  END
> <minimizedAffinity>
-6.65256

> <CNNscore>
0.3387646079

> <CNNaffinity>
5.4947376251

> <CNN_VS>
1.8614226580

> <CNNaffinity_variance>
0.3514653444

$$$$
