


 35 40  0  0  0  0  0  0  0  0999 V2000
   -6.9628   -2.2790  -21.7658 N   0  0  0  0  0  0  0  0  0  0  0  0
   -7.2703   -3.0140  -23.0368 C   0  0  0  0  0  0  0  0  0  0  0  0
   -8.6090   -2.8492  -23.6932 C   0  0  0  0  0  0  0  0  0  0  0  0
   -7.6829   -3.7783  -24.4206 C   0  0  0  0  0  0  0  0  0  0  0  0
   -6.2867   -4.1356  -24.0049 O   0  0  0  0  0  0  0  0  0  0  0  0
   -8.3982   -4.2873  -25.6369 N   0  0  0  0  0  0  0  0  0  0  0  0
   -9.7664   -3.6729  -25.6611 C   0  0  0  0  0  0  0  0  0  0  0  0
   -9.8966   -2.7841  -24.4599 C   0  0  0  0  0  0  0  0  0  0  0  0
  -11.2988   -2.3358  -24.7478 C   0  0  0  0  0  0  0  0  0  0  0  0
  -10.5835   -1.8267  -23.5316 C   0  0  0  0  0  0  0  0  0  0  0  0
   -9.6400   -1.9496  -23.0787 C   0  0  0  0  0  0  0  0  0  0  0  0
   -9.6023   -1.7006  -22.6924 C   0  0  0  0  0  0  0  0  0  0  0  0
   -9.6863   -1.8168  -22.9172 C   0  0  0  0  0  0  0  0  0  0  0  0
  -13.3483   -0.7206  -23.7771 Cl  0  0  0  0  0  0  0  0  0  0  0  0
   -9.4576   -1.2706  -21.9724 C   0  0  0  0  0  0  0  0  0  0  0  0
   -9.4821   -1.4135  -22.1960 C   0  0  0  0  0  0  0  0  0  0  0  0
   -9.3324   -1.2147  -21.8077 C   0  0  0  0  0  0  0  0  0  0  0  0
   -7.9938   -1.3795  -21.1513 C   0  0  0  0  0  0  0  0  0  0  0  0
   -7.6863   -0.6445  -19.8803 O   0  0  0  0  0  0  0  0  0  0  0  0
   -7.8429   -5.2431  -26.6509 C   0  0  0  0  0  0  0  0  0  0  0  0
   -8.6470   -6.4356  -27.0768 C   0  0  0  0  0  0  0  0  0  0  0  0
   -8.0917   -7.3914  -28.0908 N   0  0  0  0  0  0  0  0  0  0  0  0
   -6.7322   -7.1546  -28.6789 C   0  0  0  0  0  0  0  0  0  0  0  0
   -5.9281   -5.9621  -28.2530 C   0  0  0  0  0  0  0  0  0  0  0  0
   -4.5687   -5.7253  -28.8411 C   0  0  0  0  0  0  0  0  0  0  0  0
   -3.7646   -4.5328  -28.4152 C   0  0  0  0  0  0  0  0  0  0  0  0
   -4.3199   -3.5771  -27.4012 C   0  0  0  0  0  0  0  0  0  0  0  0
   -5.6794   -3.8138  -26.8131 C   0  0  0  0  0  0  0  0  0  0  0  0
   -6.4834   -5.0063  -27.2390 C   0  0  0  0  0  0  0  0  0  0  0  0
   -5.6242   -2.4438  -21.1094 C   0  0  0  0  0  0  0  0  0  0  0  0
   -5.0486   -0.4077  -17.7518 C   0  0  0  0  0  0  0  0  0  0  0  0
   -5.2125   -0.7197  -19.2097 N   0  0  0  0  0  0  0  0  0  0  0  0
   -5.4602   -2.1317  -19.6513 C   0  0  0  0  0  0  0  0  0  0  0  0
   -5.5439   -3.2316  -18.6349 O   0  0  0  0  0  0  0  0  0  0  0  0
   -5.1576    0.0022  -19.8768 H   0  0  0  0  0  0  0  0  0  0  0  0
 31 32  1  0  0  0
 32 33  1  0  0  0
 33 34  2  0  0  0
 33 30  1  0  0  0
 30  1  1  0  0  0
  1  2  1  0  0  0
  3  2  1  0  0  0
  3  4  1  0  0  0
  4  5  2  0  0  0
  4  6  1  0  0  0
  6 20  1  0  0  0
 20 21  2  0  0  0
 21 22  1  0  0  0
 22 23  2  0  0  0
 23 24  1  0  0  0
 24 25  2  0  0  0
 25 26  1  0  0  0
 26 27  2  0  0  0
 27 28  1  0  0  0
 28 29  2  0  0  0
  6  7  1  0  0  0
  7  8  1  0  0  0
  8  9  1  0  0  0
  9 10  1  0  0  0
  3 11  1  0  0  0
 11 12  2  0  0  0
 12 13  1  0  0  0
 13 14  1  0  0  0
 13 15  2  0  0  0
 15 16  1  0  0  0
 16 17  2  0  0  0
 17 18  1  0  0  0
 18 19  2  0  0  0
 18  1  1  0  0  0
  8  3  1  0  0  0
 17 11  1  0  0  0
 29 20  1  0  0  0
 10  8  1  0  0  0
 29 24  1  0  0  0
 32 35  1  0  0  0
M  END
> <minimizedAffinity>
-8.03886

> <CNNscore>
0.3589468598

> <CNNaffinity>
5.9320526123

> <CNN_VS>
2.1292917728

> <CNNaffinity_variance>
0.4951585829

$$$$



 35 40  0  0  0  0  0  0  0  0999 V2000
   -6.6162   -0.3141  -20.2720 N   0  0  0  0  0  0  0  0  0  0  0  0
   -6.4435    0.6527  -21.4058 C   0  0  0  0  0  0  0  0  0  0  0  0
   -5.2245    1.5246  -21.4688 C   0  0  0  0  0  0  0  0  0  0  0  0
   -6.1810    1.7299  -22.6058 C   0  0  0  0  0  0  0  0  0  0  0  0
   -7.4781    1.0046  -22.8089 O   0  0  0  0  0  0  0  0  0  0  0  0
   -5.6124    2.7881  -23.5043 N   0  0  0  0  0  0  0  0  0  0  0  0
   -4.3047    3.2366  -22.9225 C   0  0  0  0  0  0  0  0  0  0  0  0
   -4.0649    2.4557  -21.6644 C   0  0  0  0  0  0  0  0  0  0  0  0
   -2.7498    3.0954  -21.3310 C   0  0  0  0  0  0  0  0  0  0  0  0
   -3.3182    2.0373  -20.4326 C   0  0  0  0  0  0  0  0  0  0  0  0
   -4.1783    1.4296  -20.3980 C   0  0  0  0  0  0  0  0  0  0  0  0
   -4.1775    1.1533  -20.0287 C   0  0  0  0  0  0  0  0  0  0  0  0
   -4.1186    1.3336  -20.2161 C   0  0  0  0  0  0  0  0  0  0  0  0
   -0.6942    3.0783  -19.4532 Cl  0  0  0  0  0  0  0  0  0  0  0  0
   -4.2470    0.6149  -19.3733 C   0  0  0  0  0  0  0  0  0  0  0  0
   -4.2450    0.7756  -19.5859 C   0  0  0  0  0  0  0  0  0  0  0  0
   -4.3512    0.4627  -19.2643 C   0  0  0  0  0  0  0  0  0  0  0  0
   -5.5701   -0.4091  -19.2013 C   0  0  0  0  0  0  0  0  0  0  0  0
   -5.7429   -1.3760  -18.0675 O   0  0  0  0  0  0  0  0  0  0  0  0
   -6.2413    3.3067  -24.7635 C   0  0  0  0  0  0  0  0  0  0  0  0
   -5.7422    2.8393  -26.0987 C   0  0  0  0  0  0  0  0  0  0  0  0
   -6.3711    3.3579  -27.3579 N   0  0  0  0  0  0  0  0  0  0  0  0
   -7.4991    4.3438  -27.2820 C   0  0  0  0  0  0  0  0  0  0  0  0
   -7.9982    4.8111  -25.9469 C   0  0  0  0  0  0  0  0  0  0  0  0
   -9.1261    5.7969  -25.8710 C   0  0  0  0  0  0  0  0  0  0  0  0
   -9.6252    6.2642  -24.5359 C   0  0  0  0  0  0  0  0  0  0  0  0
   -8.9963    5.7457  -23.2766 C   0  0  0  0  0  0  0  0  0  0  0  0
   -7.8683    4.7598  -23.3525 C   0  0  0  0  0  0  0  0  0  0  0  0
   -7.3693    4.2925  -24.6876 C   0  0  0  0  0  0  0  0  0  0  0  0
   -7.8352   -1.1860  -20.2090 C   0  0  0  0  0  0  0  0  0  0  0  0
  -10.1017   -2.9370  -22.9562 C   0  0  0  0  0  0  0  0  0  0  0  0
   -9.6941   -2.1300  -21.7594 N   0  0  0  0  0  0  0  0  0  0  0  0
   -8.2428   -1.9930  -21.4060 C   0  0  0  0  0  0  0  0  0  0  0  0
   -7.1990   -2.6631  -22.2494 O   0  0  0  0  0  0  0  0  0  0  0  0
  -10.3792   -1.6902  -21.2058 H   0  0  0  0  0  0  0  0  0  0  0  0
 31 32  1  0  0  0
 32 33  1  0  0  0
 33 34  2  0  0  0
 33 30  1  0  0  0
 30  1  1  0  0  0
  1  2  1  0  0  0
  3  2  1  0  0  0
  3  4  1  0  0  0
  4  5  2  0  0  0
  4  6  1  0  0  0
  6 20  1  0  0  0
 20 21  2  0  0  0
 21 22  1  0  0  0
 22 23  2  0  0  0
 23 24  1  0  0  0
 24 25  2  0  0  0
 25 26  1  0  0  0
 26 27  2  0  0  0
 27 28  1  0  0  0
 28 29  2  0  0  0
  6  7  1  0  0  0
  7  8  1  0  0  0
  8  9  1  0  0  0
  9 10  1  0  0  0
  3 11  1  0  0  0
 11 12  2  0  0  0
 12 13  1  0  0  0
 13 14  1  0  0  0
 13 15  2  0  0  0
 15 16  1  0  0  0
 16 17  2  0  0  0
 17 18  1  0  0  0
 18 19  2  0  0  0
 18  1  1  0  0  0
  8  3  1  0  0  0
 17 11  1  0  0  0
 29 20  1  0  0  0
 10  8  1  0  0  0
 29 24  1  0  0  0
 32 35  1  0  0  0
M  END
> <minimizedAffinity>
-8.62975

> <CNNscore>
0.2969937027

> <CNNaffinity>
5.3686056137

> <CNN_VS>
1.5944420099

> <CNNaffinity_variance>
0.4804861546

$$$$



 35 40  0  0  0  0  0  0  0  0999 V2000
   -5.3542    0.2846  -20.2145 N   0  0  0  0  0  0  0  0  0  0  0  0
   -6.6165    0.4929  -20.9976 C   0  0  0  0  0  0  0  0  0  0  0  0
   -6.7420    1.6700  -21.9187 C   0  0  0  0  0  0  0  0  0  0  0  0
   -7.9562    0.7901  -21.8843 C   0  0  0  0  0  0  0  0  0  0  0  0
   -8.1214   -0.4527  -21.0608 O   0  0  0  0  0  0  0  0  0  0  0  0
   -8.9763    1.3711  -22.8181 N   0  0  0  0  0  0  0  0  0  0  0  0
   -8.3924    2.6101  -23.4296 C   0  0  0  0  0  0  0  0  0  0  0  0
   -7.0115    2.7949  -22.8738 C   0  0  0  0  0  0  0  0  0  0  0  0
   -6.7029    4.0501  -23.6347 C   0  0  0  0  0  0  0  0  0  0  0  0
   -5.6828    3.4691  -22.7010 C   0  0  0  0  0  0  0  0  0  0  0  0
   -5.6052    2.6389  -22.0567 C   0  0  0  0  0  0  0  0  0  0  0  0
   -5.1967    2.6261  -21.8431 C   0  0  0  0  0  0  0  0  0  0  0  0
   -5.4066    2.6898  -21.9946 C   0  0  0  0  0  0  0  0  0  0  0  0
   -4.7194    5.9621  -24.0370 Cl  0  0  0  0  0  0  0  0  0  0  0  0
   -4.4684    2.5350  -21.4124 C   0  0  0  0  0  0  0  0  0  0  0  0
   -4.7036    2.5447  -21.5372 C   0  0  0  0  0  0  0  0  0  0  0  0
   -4.3429    2.4306  -21.2736 C   0  0  0  0  0  0  0  0  0  0  0  0
   -4.2174    1.2534  -20.3525 C   0  0  0  0  0  0  0  0  0  0  0  0
   -2.9551    1.0451  -19.5693 O   0  0  0  0  0  0  0  0  0  0  0  0
  -10.3407    0.8114  -23.0923 C   0  0  0  0  0  0  0  0  0  0  0  0
  -11.5543    1.6766  -22.9227 C   0  0  0  0  0  0  0  0  0  0  0  0
  -12.9187    1.1169  -23.1969 N   0  0  0  0  0  0  0  0  0  0  0  0
  -13.0695   -0.3081  -23.6405 C   0  0  0  0  0  0  0  0  0  0  0  0
  -11.8559   -1.1733  -23.8101 C   0  0  0  0  0  0  0  0  0  0  0  0
  -12.0068   -2.5982  -24.2537 C   0  0  0  0  0  0  0  0  0  0  0  0
  -10.7932   -3.4634  -24.4232 C   0  0  0  0  0  0  0  0  0  0  0  0
   -9.4288   -2.9036  -24.1491 C   0  0  0  0  0  0  0  0  0  0  0  0
   -9.2780   -1.4787  -23.7054 C   0  0  0  0  0  0  0  0  0  0  0  0
  -10.4915   -0.6135  -23.5359 C   0  0  0  0  0  0  0  0  0  0  0  0
   -5.2287   -0.8926  -19.2934 C   0  0  0  0  0  0  0  0  0  0  0  0
   -5.9773   -3.8867  -21.7883 C   0  0  0  0  0  0  0  0  0  0  0  0
   -5.8079   -2.4953  -21.2546 N   0  0  0  0  0  0  0  0  0  0  0  0
   -5.3981   -2.2842  -19.8272 C   0  0  0  0  0  0  0  0  0  0  0  0
   -5.1577   -3.4647  -18.9335 O   0  0  0  0  0  0  0  0  0  0  0  0
   -5.9657   -1.7205  -21.8411 H   0  0  0  0  0  0  0  0  0  0  0  0
 31 32  1  0  0  0
 32 33  1  0  0  0
 33 34  2  0  0  0
 33 30  1  0  0  0
 30  1  1  0  0  0
  1  2  1  0  0  0
  3  2  1  0  0  0
  3  4  1  0  0  0
  4  5  2  0  0  0
  4  6  1  0  0  0
  6 20  1  0  0  0
 20 21  2  0  0  0
 21 22  1  0  0  0
 22 23  2  0  0  0
 23 24  1  0  0  0
 24 25  2  0  0  0
 25 26  1  0  0  0
 26 27  2  0  0  0
 27 28  1  0  0  0
 28 29  2  0  0  0
  6  7  1  0  0  0
  7  8  1  0  0  0
  8  9  1  0  0  0
  9 10  1  0  0  0
  3 11  1  0  0  0
 11 12  2  0  0  0
 12 13  1  0  0  0
 13 14  1  0  0  0
 13 15  2  0  0  0
 15 16  1  0  0  0
 16 17  2  0  0  0
 17 18  1  0  0  0
 18 19  2  0  0  0
 18  1  1  0  0  0
  8  3  1  0  0  0
 17 11  1  0  0  0
 29 20  1  0  0  0
 10  8  1  0  0  0
 29 24  1  0  0  0
 32 35  1  0  0  0
M  END
> <minimizedAffinity>
-9.27466

> <CNNscore>
0.2753370404

> <CNNaffinity>
5.6755132675

> <CNN_VS>
1.5626790524

> <CNNaffinity_variance>
0.2149914950

$$$$



 35 40  0  0  0  0  0  0  0  0999 V2000
   -6.5211   -1.8912  -21.8035 N   0  0  0  0  0  0  0  0  0  0  0  0
   -6.8396   -2.7890  -22.9622 C   0  0  0  0  0  0  0  0  0  0  0  0
   -8.2683   -3.0730  -23.3203 C   0  0  0  0  0  0  0  0  0  0  0  0
   -7.2697   -3.7547  -24.2080 C   0  0  0  0  0  0  0  0  0  0  0  0
   -5.7772   -3.6582  -24.0930 O   0  0  0  0  0  0  0  0  0  0  0  0
   -8.0257   -4.5497  -25.2310 N   0  0  0  0  0  0  0  0  0  0  0  0
   -9.4914   -4.3594  -24.9755 C   0  0  0  0  0  0  0  0  0  0  0  0
   -9.6414   -3.4468  -23.7946 C   0  0  0  0  0  0  0  0  0  0  0  0
  -11.1413   -3.4473  -23.7855 C   0  0  0  0  0  0  0  0  0  0  0  0
  -10.3855   -2.6522  -22.7626 C   0  0  0  0  0  0  0  0  0  0  0  0
   -9.3784   -2.4593  -22.5196 C   0  0  0  0  0  0  0  0  0  0  0  0
   -9.3413   -2.1780  -22.1561 C   0  0  0  0  0  0  0  0  0  0  0  0
   -9.4294   -2.3322  -22.3550 C   0  0  0  0  0  0  0  0  0  0  0  0
  -13.3459   -2.4138  -22.4351 Cl  0  0  0  0  0  0  0  0  0  0  0  0
   -9.1926   -1.6649  -21.4937 C   0  0  0  0  0  0  0  0  0  0  0  0
   -9.2169   -1.8273  -21.7035 C   0  0  0  0  0  0  0  0  0  0  0  0
   -9.0599   -1.5616  -21.3609 C   0  0  0  0  0  0  0  0  0  0  0  0
   -7.6312   -1.2775  -21.0029 C   0  0  0  0  0  0  0  0  0  0  0  0
   -7.3127   -0.3797  -19.8442 O   0  0  0  0  0  0  0  0  0  0  0  0
   -7.4218   -5.3879  -26.3186 C   0  0  0  0  0  0  0  0  0  0  0  0
   -7.9255   -5.2663  -27.7264 C   0  0  0  0  0  0  0  0  0  0  0  0
   -7.3216   -6.1045  -28.8140 N   0  0  0  0  0  0  0  0  0  0  0  0
   -6.2141   -7.0643  -28.4938 C   0  0  0  0  0  0  0  0  0  0  0  0
   -5.7105   -7.1858  -27.0862 C   0  0  0  0  0  0  0  0  0  0  0  0
   -4.6031   -8.1455  -26.7661 C   0  0  0  0  0  0  0  0  0  0  0  0
   -4.0995   -8.2670  -25.3584 C   0  0  0  0  0  0  0  0  0  0  0  0
   -4.7033   -7.4289  -24.2708 C   0  0  0  0  0  0  0  0  0  0  0  0
   -5.8108   -6.4691  -24.5909 C   0  0  0  0  0  0  0  0  0  0  0  0
   -6.3144   -6.3476  -25.9986 C   0  0  0  0  0  0  0  0  0  0  0  0
   -5.0925   -1.6071  -21.4455 C   0  0  0  0  0  0  0  0  0  0  0  0
   -3.6501    2.0546  -20.9346 C   0  0  0  0  0  0  0  0  0  0  0  0
   -4.2458    0.7113  -20.6341 N   0  0  0  0  0  0  0  0  0  0  0  0
   -4.4967   -0.2637  -21.7460 C   0  0  0  0  0  0  0  0  0  0  0  0
   -4.1519    0.1048  -23.1586 O   0  0  0  0  0  0  0  0  0  0  0  0
   -4.4721    0.4695  -19.7069 H   0  0  0  0  0  0  0  0  0  0  0  0
 31 32  1  0  0  0
 32 33  1  0  0  0
 33 34  2  0  0  0
 33 30  1  0  0  0
 30  1  1  0  0  0
  1  2  1  0  0  0
  3  2  1  0  0  0
  3  4  1  0  0  0
  4  5  2  0  0  0
  4  6  1  0  0  0
  6 20  1  0  0  0
 20 21  2  0  0  0
 21 22  1  0  0  0
 22 23  2  0  0  0
 23 24  1  0  0  0
 24 25  2  0  0  0
 25 26  1  0  0  0
 26 27  2  0  0  0
 27 28  1  0  0  0
 28 29  2  0  0  0
  6  7  1  0  0  0
  7  8  1  0  0  0
  8  9  1  0  0  0
  9 10  1  0  0  0
  3 11  1  0  0  0
 11 12  2  0  0  0
 12 13  1  0  0  0
 13 14  1  0  0  0
 13 15  2  0  0  0
 15 16  1  0  0  0
 16 17  2  0  0  0
 17 18  1  0  0  0
 18 19  2  0  0  0
 18  1  1  0  0  0
  8  3  1  0  0  0
 17 11  1  0  0  0
 29 20  1  0  0  0
 10  8  1  0  0  0
 29 24  1  0  0  0
 32 35  1  0  0  0
M  END
> <minimizedAffinity>
-8.49878

> <CNNscore>
0.2660256326

> <CNNaffinity>
5.8301277161

> <CNN_VS>
1.5509634018

> <CNNaffinity_variance>
0.3567732871

$$$$



 35 40  0  0  0  0  0  0  0  0999 V2000
   -9.4280   -3.9528  -24.5048 N   0  0  0  0  0  0  0  0  0  0  0  0
   -9.8747   -2.5669  -24.1442 C   0  0  0  0  0  0  0  0  0  0  0  0
   -9.1052   -1.7704  -23.1326 C   0  0  0  0  0  0  0  0  0  0  0  0
  -10.2952   -1.0527  -23.6972 C   0  0  0  0  0  0  0  0  0  0  0  0
  -11.2475   -1.5948  -24.7215 O   0  0  0  0  0  0  0  0  0  0  0  0
  -10.3657    0.3023  -23.0576 N   0  0  0  0  0  0  0  0  0  0  0  0
   -9.2193    0.4220  -22.0978 C   0  0  0  0  0  0  0  0  0  0  0  0
   -8.4402   -0.8589  -22.1441 C   0  0  0  0  0  0  0  0  0  0  0  0
   -7.4117   -0.4537  -21.1303 C   0  0  0  0  0  0  0  0  0  0  0  0
   -7.3411   -1.8086  -21.7698 C   0  0  0  0  0  0  0  0  0  0  0  0
   -7.8890   -2.3596  -22.4817 C   0  0  0  0  0  0  0  0  0  0  0  0
   -7.7060   -2.7769  -22.5523 C   0  0  0  0  0  0  0  0  0  0  0  0
   -7.7598   -2.5299  -22.4678 C   0  0  0  0  0  0  0  0  0  0  0  0
   -5.1338   -1.3555  -19.8076 Cl  0  0  0  0  0  0  0  0  0  0  0  0
   -7.4278   -3.5600  -22.7359 C   0  0  0  0  0  0  0  0  0  0  0  0
   -7.5316   -3.3182  -22.6932 C   0  0  0  0  0  0  0  0  0  0  0  0
   -7.4423   -3.7454  -22.8423 C   0  0  0  0  0  0  0  0  0  0  0  0
   -8.2119   -4.5420  -23.8539 C   0  0  0  0  0  0  0  0  0  0  0  0
   -7.7652   -5.9278  -24.2145 O   0  0  0  0  0  0  0  0  0  0  0  0
  -11.4009    1.3531  -23.3301 C   0  0  0  0  0  0  0  0  0  0  0  0
  -12.8320    1.1123  -22.9504 C   0  0  0  0  0  0  0  0  0  0  0  0
  -13.8673    2.1630  -23.2228 N   0  0  0  0  0  0  0  0  0  0  0  0
  -13.4714    3.4546  -23.8750 C   0  0  0  0  0  0  0  0  0  0  0  0
  -12.0404    3.6954  -24.2546 C   0  0  0  0  0  0  0  0  0  0  0  0
  -11.6445    4.9869  -24.9067 C   0  0  0  0  0  0  0  0  0  0  0  0
  -10.2135    5.2277  -25.2863 C   0  0  0  0  0  0  0  0  0  0  0  0
   -9.1783    4.1769  -25.0139 C   0  0  0  0  0  0  0  0  0  0  0  0
   -9.5741    2.8854  -24.3618 C   0  0  0  0  0  0  0  0  0  0  0  0
  -11.0051    2.6446  -23.9822 C   0  0  0  0  0  0  0  0  0  0  0  0
  -10.1975   -4.7494  -25.5163 C   0  0  0  0  0  0  0  0  0  0  0  0
   -8.3989   -6.7671  -28.4221 C   0  0  0  0  0  0  0  0  0  0  0  0
   -9.0176   -6.4423  -27.0949 N   0  0  0  0  0  0  0  0  0  0  0  0
   -9.5787   -5.0742  -26.8436 C   0  0  0  0  0  0  0  0  0  0  0  0
   -9.5211   -4.0307  -27.9196 O   0  0  0  0  0  0  0  0  0  0  0  0
   -9.0554   -7.1272  -26.3887 H   0  0  0  0  0  0  0  0  0  0  0  0
 31 32  1  0  0  0
 32 33  1  0  0  0
 33 34  2  0  0  0
 33 30  1  0  0  0
 30  1  1  0  0  0
  1  2  1  0  0  0
  3  2  1  0  0  0
  3  4  1  0  0  0
  4  5  2  0  0  0
  4  6  1  0  0  0
  6 20  1  0  0  0
 20 21  2  0  0  0
 21 22  1  0  0  0
 22 23  2  0  0  0
 23 24  1  0  0  0
 24 25  2  0  0  0
 25 26  1  0  0  0
 26 27  2  0  0  0
 27 28  1  0  0  0
 28 29  2  0  0  0
  6  7  1  0  0  0
  7  8  1  0  0  0
  8  9  1  0  0  0
  9 10  1  0  0  0
  3 11  1  0  0  0
 11 12  2  0  0  0
 12 13  1  0  0  0
 13 14  1  0  0  0
 13 15  2  0  0  0
 15 16  1  0  0  0
 16 17  2  0  0  0
 17 18  1  0  0  0
 18 19  2  0  0  0
 18  1  1  0  0  0
  8  3  1  0  0  0
 17 11  1  0  0  0
 29 20  1  0  0  0
 10  8  1  0  0  0
 29 24  1  0  0  0
 32 35  1  0  0  0
M  END
> <minimizedAffinity>
-9.07162

> <CNNscore>
0.2608036399

> <CNNaffinity>
5.9884142876

> <CNN_VS>
1.5618002415

> <CNNaffinity_variance>
0.2016111612

$$$$



 35 40  0  0  0  0  0  0  0  0999 V2000
   -4.9815    0.9000  -21.1618 N   0  0  0  0  0  0  0  0  0  0  0  0
   -6.2725    1.0051  -21.9184 C   0  0  0  0  0  0  0  0  0  0  0  0
   -6.2565    1.1962  -23.4060 C   0  0  0  0  0  0  0  0  0  0  0  0
   -7.6332    1.1285  -22.8143 C   0  0  0  0  0  0  0  0  0  0  0  0
   -7.9606    0.9439  -21.3622 O   0  0  0  0  0  0  0  0  0  0  0  0
   -8.6250    1.2779  -23.9298 N   0  0  0  0  0  0  0  0  0  0  0  0
   -7.8612    1.4379  -25.2108 C   0  0  0  0  0  0  0  0  0  0  0  0
   -6.3974    1.3874  -24.8871 C   0  0  0  0  0  0  0  0  0  0  0  0
   -5.9187    1.5658  -26.2974 C   0  0  0  0  0  0  0  0  0  0  0  0
   -4.9270    1.4164  -25.1821 C   0  0  0  0  0  0  0  0  0  0  0  0
   -4.9496    1.2822  -24.1372 C   0  0  0  0  0  0  0  0  0  0  0  0
   -4.5250    1.2568  -23.9591 C   0  0  0  0  0  0  0  0  0  0  0  0
   -4.7361    1.2788  -24.1204 C   0  0  0  0  0  0  0  0  0  0  0  0
   -3.6107    1.7505  -27.8437 Cl  0  0  0  0  0  0  0  0  0  0  0  0
   -3.7765    1.2007  -23.5580 C   0  0  0  0  0  0  0  0  0  0  0  0
   -4.0207    1.2157  -23.6635 C   0  0  0  0  0  0  0  0  0  0  0  0
   -3.6586    1.1772  -23.3806 C   0  0  0  0  0  0  0  0  0  0  0  0
   -3.6746    0.9861  -21.8929 C   0  0  0  0  0  0  0  0  0  0  0  0
   -2.3836    0.8810  -21.1364 O   0  0  0  0  0  0  0  0  0  0  0  0
  -10.1183    1.2688  -23.7889 C   0  0  0  0  0  0  0  0  0  0  0  0
  -10.8998    2.5307  -24.0063 C   0  0  0  0  0  0  0  0  0  0  0  0
  -12.3932    2.5216  -23.8654 N   0  0  0  0  0  0  0  0  0  0  0  0
  -13.1050    1.2507  -23.5071 C   0  0  0  0  0  0  0  0  0  0  0  0
  -12.3235   -0.0110  -23.2898 C   0  0  0  0  0  0  0  0  0  0  0  0
  -13.0354   -1.2818  -22.9315 C   0  0  0  0  0  0  0  0  0  0  0  0
  -12.2538   -2.5435  -22.7142 C   0  0  0  0  0  0  0  0  0  0  0  0
  -10.7605   -2.5345  -22.8551 C   0  0  0  0  0  0  0  0  0  0  0  0
  -10.0486   -1.2637  -23.2133 C   0  0  0  0  0  0  0  0  0  0  0  0
  -10.8302   -0.0020  -23.4307 C   0  0  0  0  0  0  0  0  0  0  0  0
   -4.9975    0.7089  -19.6741 C   0  0  0  0  0  0  0  0  0  0  0  0
   -5.4151   -3.2290  -19.4131 C   0  0  0  0  0  0  0  0  0  0  0  0
   -5.2015   -1.8617  -19.9915 N   0  0  0  0  0  0  0  0  0  0  0  0
   -5.2112   -0.6585  -19.0958 C   0  0  0  0  0  0  0  0  0  0  0  0
   -5.4346   -0.8228  -17.6217 O   0  0  0  0  0  0  0  0  0  0  0  0
   -5.0548   -1.7539  -20.9590 H   0  0  0  0  0  0  0  0  0  0  0  0
 31 32  1  0  0  0
 32 33  1  0  0  0
 33 34  2  0  0  0
 33 30  1  0  0  0
 30  1  1  0  0  0
  1  2  1  0  0  0
  3  2  1  0  0  0
  3  4  1  0  0  0
  4  5  2  0  0  0
  4  6  1  0  0  0
  6 20  1  0  0  0
 20 21  2  0  0  0
 21 22  1  0  0  0
 22 23  2  0  0  0
 23 24  1  0  0  0
 24 25  2  0  0  0
 25 26  1  0  0  0
 26 27  2  0  0  0
 27 28  1  0  0  0
 28 29  2  0  0  0
  6  7  1  0  0  0
  7  8  1  0  0  0
  8  9  1  0  0  0
  9 10  1  0  0  0
  3 11  1  0  0  0
 11 12  2  0  0  0
 12 13  1  0  0  0
 13 14  1  0  0  0
 13 15  2  0  0  0
 15 16  1  0  0  0
 16 17  2  0  0  0
 17 18  1  0  0  0
 18 19  2  0  0  0
 18  1  1  0  0  0
  8  3  1  0  0  0
 17 11  1  0  0  0
 29 20  1  0  0  0
 10  8  1  0  0  0
 29 24  1  0  0  0
 32 35  1  0  0  0
M  END
> <minimizedAffinity>
-7.99116

> <CNNscore>
0.2494123429

> <CNNaffinity>
5.8145966530

> <CNN_VS>
1.4502321482

> <CNNaffinity_variance>
0.1338055134

$$$$



 35 40  0  0  0  0  0  0  0  0999 V2000
   -6.7664   -2.3236  -21.2110 N   0  0  0  0  0  0  0  0  0  0  0  0
   -7.9320   -1.6582  -21.8810 C   0  0  0  0  0  0  0  0  0  0  0  0
   -8.6887   -2.3775  -22.9580 C   0  0  0  0  0  0  0  0  0  0  0  0
   -9.2112   -1.0037  -22.6586 C   0  0  0  0  0  0  0  0  0  0  0  0
   -8.6600   -0.0541  -21.6367 O   0  0  0  0  0  0  0  0  0  0  0  0
  -10.3818   -0.7463  -23.5607 N   0  0  0  0  0  0  0  0  0  0  0  0
  -10.5827   -1.9610  -24.4175 C   0  0  0  0  0  0  0  0  0  0  0  0
   -9.5363   -2.9692  -24.0450 C   0  0  0  0  0  0  0  0  0  0  0  0
   -9.9751   -4.0190  -25.0224 C   0  0  0  0  0  0  0  0  0  0  0  0
   -8.8046   -4.2764  -24.1204 C   0  0  0  0  0  0  0  0  0  0  0  0
   -8.2799   -3.7622  -23.3650 C   0  0  0  0  0  0  0  0  0  0  0  0
   -7.9330   -4.0146  -23.1959 C   0  0  0  0  0  0  0  0  0  0  0  0
   -8.1430   -3.9236  -23.3328 C   0  0  0  0  0  0  0  0  0  0  0  0
   -9.3846   -6.5854  -25.9261 Cl  0  0  0  0  0  0  0  0  0  0  0  0
   -7.2766   -4.4182  -22.8347 C   0  0  0  0  0  0  0  0  0  0  0  0
   -7.4777   -4.2744  -22.9342 C   0  0  0  0  0  0  0  0  0  0  0  0
   -7.1144   -4.4275  -22.6950 C   0  0  0  0  0  0  0  0  0  0  0  0
   -6.3577   -3.7082  -21.6180 C   0  0  0  0  0  0  0  0  0  0  0  0
   -5.1921   -4.3736  -20.9480 O   0  0  0  0  0  0  0  0  0  0  0  0
  -11.2066    0.5060  -23.5991 C   0  0  0  0  0  0  0  0  0  0  0  0
  -12.6323    0.4796  -23.1334 C   0  0  0  0  0  0  0  0  0  0  0  0
  -13.4572    1.7318  -23.1718 N   0  0  0  0  0  0  0  0  0  0  0  0
  -12.8563    3.0105  -23.6759 C   0  0  0  0  0  0  0  0  0  0  0  0
  -11.4307    3.0369  -24.1416 C   0  0  0  0  0  0  0  0  0  0  0  0
  -10.8299    4.3155  -24.6458 C   0  0  0  0  0  0  0  0  0  0  0  0
   -9.4043    4.3418  -25.1115 C   0  0  0  0  0  0  0  0  0  0  0  0
   -8.5795    3.0895  -25.0730 C   0  0  0  0  0  0  0  0  0  0  0  0
   -9.1802    1.8109  -24.5689 C   0  0  0  0  0  0  0  0  0  0  0  0
  -10.6059    1.7846  -24.1032 C   0  0  0  0  0  0  0  0  0  0  0  0
   -6.0097   -1.6043  -20.1340 C   0  0  0  0  0  0  0  0  0  0  0  0
   -3.4676    1.4286  -19.8356 C   0  0  0  0  0  0  0  0  0  0  0  0
   -4.4987    0.4024  -19.4704 N   0  0  0  0  0  0  0  0  0  0  0  0
   -4.9786   -0.5780  -20.4993 C   0  0  0  0  0  0  0  0  0  0  0  0
   -4.4273   -0.5320  -21.8935 O   0  0  0  0  0  0  0  0  0  0  0  0
   -4.8606    0.3722  -18.5553 H   0  0  0  0  0  0  0  0  0  0  0  0
 31 32  1  0  0  0
 32 33  1  0  0  0
 33 34  2  0  0  0
 33 30  1  0  0  0
 30  1  1  0  0  0
  1  2  1  0  0  0
  3  2  1  0  0  0
  3  4  1  0  0  0
  4  5  2  0  0  0
  4  6  1  0  0  0
  6 20  1  0  0  0
 20 21  2  0  0  0
 21 22  1  0  0  0
 22 23  2  0  0  0
 23 24  1  0  0  0
 24 25  2  0  0  0
 25 26  1  0  0  0
 26 27  2  0  0  0
 27 28  1  0  0  0
 28 29  2  0  0  0
  6  7  1  0  0  0
  7  8  1  0  0  0
  8  9  1  0  0  0
  9 10  1  0  0  0
  3 11  1  0  0  0
 11 12  2  0  0  0
 12 13  1  0  0  0
 13 14  1  0  0  0
 13 15  2  0  0  0
 15 16  1  0  0  0
 16 17  2  0  0  0
 17 18  1  0  0  0
 18 19  2  0  0  0
 18  1  1  0  0  0
  8  3  1  0  0  0
 17 11  1  0  0  0
 29 20  1  0  0  0
 10  8  1  0  0  0
 29 24  1  0  0  0
 32 35  1  0  0  0
M  END
> <minimizedAffinity>
-8.77262

> <CNNscore>
0.2286197841

> <CNNaffinity>
5.9604725838

> <CNN_VS>
1.3626819849

> <CNNaffinity_variance>
0.0732323676

$$$$



 35 40  0  0  0  0  0  0  0  0999 V2000
   -5.4860    0.2783  -20.2615 N   0  0  0  0  0  0  0  0  0  0  0  0
   -6.7066    0.6034  -21.0706 C   0  0  0  0  0  0  0  0  0  0  0  0
   -6.7083    1.7974  -21.9786 C   0  0  0  0  0  0  0  0  0  0  0  0
   -7.9941    1.0249  -21.9839 C   0  0  0  0  0  0  0  0  0  0  0  0
   -8.2851   -0.2082  -21.1811 O   0  0  0  0  0  0  0  0  0  0  0  0
   -8.9377    1.7022  -22.9332 N   0  0  0  0  0  0  0  0  0  0  0  0
   -8.2350    2.8932  -23.5144 C   0  0  0  0  0  0  0  0  0  0  0  0
   -6.8572    2.9520  -22.9244 C   0  0  0  0  0  0  0  0  0  0  0  0
   -6.4237    4.1846  -23.6612 C   0  0  0  0  0  0  0  0  0  0  0  0
   -5.4801    3.5074  -22.7120 C   0  0  0  0  0  0  0  0  0  0  0  0
   -5.4895    2.6662  -22.0773 C   0  0  0  0  0  0  0  0  0  0  0  0
   -5.0889    2.6159  -21.8546 C   0  0  0  0  0  0  0  0  0  0  0  0
   -5.2889    2.6992  -22.0100 C   0  0  0  0  0  0  0  0  0  0  0  0
   -4.2743    5.9231  -23.9920 Cl  0  0  0  0  0  0  0  0  0  0  0  0
   -4.3817    2.4575  -21.4085 C   0  0  0  0  0  0  0  0  0  0  0  0
   -4.6122    2.4889  -21.5385 C   0  0  0  0  0  0  0  0  0  0  0  0
   -4.2691    2.3411  -21.2682 C   0  0  0  0  0  0  0  0  0  0  0  0
   -4.2674    1.1471  -20.3602 C   0  0  0  0  0  0  0  0  0  0  0  0
   -3.0468    0.8220  -19.5510 O   0  0  0  0  0  0  0  0  0  0  0  0
  -10.3381    1.2652  -23.2461 C   0  0  0  0  0  0  0  0  0  0  0  0
  -10.6577   -0.1951  -23.3717 C   0  0  0  0  0  0  0  0  0  0  0  0
  -12.0581   -0.6321  -23.6847 N   0  0  0  0  0  0  0  0  0  0  0  0
  -13.1388    0.3911  -23.8721 C   0  0  0  0  0  0  0  0  0  0  0  0
  -12.8192    1.8513  -23.7466 C   0  0  0  0  0  0  0  0  0  0  0  0
  -13.9000    2.8744  -23.9340 C   0  0  0  0  0  0  0  0  0  0  0  0
  -13.5803    4.3346  -23.8085 C   0  0  0  0  0  0  0  0  0  0  0  0
  -12.1799    4.7716  -23.4955 C   0  0  0  0  0  0  0  0  0  0  0  0
  -11.0992    3.7485  -23.3081 C   0  0  0  0  0  0  0  0  0  0  0  0
  -11.4188    2.2883  -23.4336 C   0  0  0  0  0  0  0  0  0  0  0  0
   -5.4843   -0.9157  -19.3535 C   0  0  0  0  0  0  0  0  0  0  0  0
   -6.0418   -3.8835  -21.9286 C   0  0  0  0  0  0  0  0  0  0  0  0
   -5.9870   -2.5009  -21.3497 N   0  0  0  0  0  0  0  0  0  0  0  0
   -5.5392   -2.2984  -19.9325 C   0  0  0  0  0  0  0  0  0  0  0  0
   -5.1462   -3.4786  -19.0942 O   0  0  0  0  0  0  0  0  0  0  0  0
   -6.2449   -1.7263  -21.8999 H   0  0  0  0  0  0  0  0  0  0  0  0
 31 32  1  0  0  0
 32 33  1  0  0  0
 33 34  2  0  0  0
 33 30  1  0  0  0
 30  1  1  0  0  0
  1  2  1  0  0  0
  3  2  1  0  0  0
  3  4  1  0  0  0
  4  5  2  0  0  0
  4  6  1  0  0  0
  6 20  1  0  0  0
 20 21  2  0  0  0
 21 22  1  0  0  0
 22 23  2  0  0  0
 23 24  1  0  0  0
 24 25  2  0  0  0
 25 26  1  0  0  0
 26 27  2  0  0  0
 27 28  1  0  0  0
 28 29  2  0  0  0
  6  7  1  0  0  0
  7  8  1  0  0  0
  8  9  1  0  0  0
  9 10  1  0  0  0
  3 11  1  0  0  0
 11 12  2  0  0  0
 12 13  1  0  0  0
 13 14  1  0  0  0
 13 15  2  0  0  0
 15 16  1  0  0  0
 16 17  2  0  0  0
 17 18  1  0  0  0
 18 19  2  0  0  0
 18  1  1  0  0  0
  8  3  1  0  0  0
 17 11  1  0  0  0
 29 20  1  0  0  0
 10  8  1  0  0  0
 29 24  1  0  0  0
 32 35  1  0  0  0
M  END
> <minimizedAffinity>
-9.58391

> <CNNscore>
0.2262321562

> <CNNaffinity>
5.4089651108

> <CNN_VS>
1.2236818075

> <CNNaffinity_variance>
0.7519994378

$$$$



 35 40  0  0  0  0  0  0  0  0999 V2000
   -6.0886   -3.4408  -21.2913 N   0  0  0  0  0  0  0  0  0  0  0  0
   -6.8884   -2.4620  -22.0990 C   0  0  0  0  0  0  0  0  0  0  0  0
   -7.7368   -2.9455  -23.2376 C   0  0  0  0  0  0  0  0  0  0  0  0
   -7.7878   -1.4614  -23.0260 C   0  0  0  0  0  0  0  0  0  0  0  0
   -7.0481   -0.6954  -21.9696 O   0  0  0  0  0  0  0  0  0  0  0  0
   -8.7085   -0.8777  -24.0564 N   0  0  0  0  0  0  0  0  0  0  0  0
   -9.2265   -2.0010  -24.9048 C   0  0  0  0  0  0  0  0  0  0  0  0
   -8.6260   -3.2790  -24.3987 C   0  0  0  0  0  0  0  0  0  0  0  0
   -9.2989   -4.1743  -25.3965 C   0  0  0  0  0  0  0  0  0  0  0  0
   -8.3783   -4.7581  -24.3661 C   0  0  0  0  0  0  0  0  0  0  0  0
   -7.7855   -4.4077  -23.5684 C   0  0  0  0  0  0  0  0  0  0  0  0
   -7.5631   -4.7519  -23.3570 C   0  0  0  0  0  0  0  0  0  0  0  0
   -7.7154   -4.6037  -23.5180 C   0  0  0  0  0  0  0  0  0  0  0  0
   -9.5312   -6.8370  -26.1764 Cl  0  0  0  0  0  0  0  0  0  0  0  0
   -7.1209   -5.3312  -22.9175 C   0  0  0  0  0  0  0  0  0  0  0  0
   -7.2507   -5.1342  -23.0415 C   0  0  0  0  0  0  0  0  0  0  0  0
   -6.9858   -5.3865  -22.7607 C   0  0  0  0  0  0  0  0  0  0  0  0
   -6.1374   -4.9030  -21.6221 C   0  0  0  0  0  0  0  0  0  0  0  0
   -5.3376   -5.8818  -20.8144 O   0  0  0  0  0  0  0  0  0  0  0  0
   -9.0511    0.5745  -24.2113 C   0  0  0  0  0  0  0  0  0  0  0  0
   -7.9854    1.5603  -24.5890 C   0  0  0  0  0  0  0  0  0  0  0  0
   -8.3279    3.0125  -24.7438 N   0  0  0  0  0  0  0  0  0  0  0  0
   -9.7362    3.4788  -24.5209 C   0  0  0  0  0  0  0  0  0  0  0  0
  -10.8017    2.4930  -24.1432 C   0  0  0  0  0  0  0  0  0  0  0  0
  -12.2099    2.9593  -23.9203 C   0  0  0  0  0  0  0  0  0  0  0  0
  -13.2754    1.9735  -23.5426 C   0  0  0  0  0  0  0  0  0  0  0  0
  -12.9329    0.5213  -23.3878 C   0  0  0  0  0  0  0  0  0  0  0  0
  -11.5248    0.0550  -23.6107 C   0  0  0  0  0  0  0  0  0  0  0  0
  -10.4592    1.0408  -23.9884 C   0  0  0  0  0  0  0  0  0  0  0  0
   -5.2402   -2.9573  -20.1527 C   0  0  0  0  0  0  0  0  0  0  0  0
   -5.3068    0.3897  -18.0213 C   0  0  0  0  0  0  0  0  0  0  0  0
   -4.8156   -0.7183  -18.9049 N   0  0  0  0  0  0  0  0  0  0  0  0
   -5.7314   -1.8491  -19.2691 C   0  0  0  0  0  0  0  0  0  0  0  0
   -7.1384   -1.8718  -18.7497 O   0  0  0  0  0  0  0  0  0  0  0  0
   -3.8922   -0.7034  -19.2458 H   0  0  0  0  0  0  0  0  0  0  0  0
 31 32  1  0  0  0
 32 33  1  0  0  0
 33 34  2  0  0  0
 33 30  1  0  0  0
 30  1  1  0  0  0
  1  2  1  0  0  0
  3  2  1  0  0  0
  3  4  1  0  0  0
  4  5  2  0  0  0
  4  6  1  0  0  0
  6 20  1  0  0  0
 20 21  2  0  0  0
 21 22  1  0  0  0
 22 23  2  0  0  0
 23 24  1  0  0  0
 24 25  2  0  0  0
 25 26  1  0  0  0
 26 27  2  0  0  0
 27 28  1  0  0  0
 28 29  2  0  0  0
  6  7  1  0  0  0
  7  8  1  0  0  0
  8  9  1  0  0  0
  9 10  1  0  0  0
  3 11  1  0  0  0
 11 12  2  0  0  0
 12 13  1  0  0  0
 13 14  1  0  0  0
 13 15  2  0  0  0
 15 16  1  0  0  0
 16 17  2  0  0  0
 17 18  1  0  0  0
 18 19  2  0  0  0
 18  1  1  0  0  0
  8  3  1  0  0  0
 17 11  1  0  0  0
 29 20  1  0  0  0
 10  8  1  0  0  0
 29 24  1  0  0  0
 32 35  1  0  0  0
M  END
> <minimizedAffinity>
-8.98882

> <CNNscore>
0.2075231671

> <CNNaffinity>
5.8921728134

> <CNN_VS>
1.2227623463

> <CNNaffinity_variance>
0.3935149312

$$$$
