


 35 40  0  0  0  0  0  0  0  0999 V2000
   10.9752    0.1807   23.0708 N   0  0  0  0  0  0  0  0  0  0  0  0
    9.6794    0.0636   22.3242 C   0  0  0  0  0  0  0  0  0  0  0  0
    8.8306   -1.1628   22.4831 C   0  0  0  0  0  0  0  0  0  0  0  0
    8.2567   -0.1406   21.5472 C   0  0  0  0  0  0  0  0  0  0  0  0
    8.8779    1.1781   21.1936 O   0  0  0  0  0  0  0  0  0  0  0  0
    6.9526   -0.6688   21.0271 N   0  0  0  0  0  0  0  0  0  0  0  0
    6.7206   -2.0174   21.6415 C   0  0  0  0  0  0  0  0  0  0  0  0
    7.8812   -2.3227   22.5413 C   0  0  0  0  0  0  0  0  0  0  0  0
    7.3848   -3.6661   22.9871 C   0  0  0  0  0  0  0  0  0  0  0  0
    8.6888   -3.1381   23.5072 C   0  0  0  0  0  0  0  0  0  0  0  0
    9.2775   -2.2722   23.3884 C   0  0  0  0  0  0  0  0  0  0  0  0
    9.6628   -2.2917   23.6410 C   0  0  0  0  0  0  0  0  0  0  0  0
    9.4292   -2.3417   23.5227 C   0  0  0  0  0  0  0  0  0  0  0  0
    8.0266   -5.8345   24.6114 Cl  0  0  0  0  0  0  0  0  0  0  0  0
   10.3924   -2.2546   24.0776 C   0  0  0  0  0  0  0  0  0  0  0  0
   10.1689   -2.2459   23.9326 C   0  0  0  0  0  0  0  0  0  0  0  0
   10.5732   -2.1551   24.1349 C   0  0  0  0  0  0  0  0  0  0  0  0
   11.4221   -0.9286   23.9761 C   0  0  0  0  0  0  0  0  0  0  0  0
   12.7179   -0.8115   24.7227 O   0  0  0  0  0  0  0  0  0  0  0  0
    6.0407    0.0291   20.0620 C   0  0  0  0  0  0  0  0  0  0  0  0
    6.3459    0.0090   18.5934 C   0  0  0  0  0  0  0  0  0  0  0  0
    5.4340    0.7070   17.6284 N   0  0  0  0  0  0  0  0  0  0  0  0
    4.2170    1.4250   18.1318 C   0  0  0  0  0  0  0  0  0  0  0  0
    3.9119    1.4451   19.6004 C   0  0  0  0  0  0  0  0  0  0  0  0
    2.6950    2.1631   20.1038 C   0  0  0  0  0  0  0  0  0  0  0  0
    2.3899    2.1832   21.5723 C   0  0  0  0  0  0  0  0  0  0  0  0
    3.3018    1.4853   22.5374 C   0  0  0  0  0  0  0  0  0  0  0  0
    4.5188    0.7673   22.0340 C   0  0  0  0  0  0  0  0  0  0  0  0
    4.8238    0.7472   20.5654 C   0  0  0  0  0  0  0  0  0  0  0  0
   11.8241    1.4071   22.9120 C   0  0  0  0  0  0  0  0  0  0  0  0
   11.3481    5.3399   22.6731 C   0  0  0  0  0  0  0  0  0  0  0  0
   11.9704    3.9789   22.5725 N   0  0  0  0  0  0  0  0  0  0  0  0
   11.2017    2.7683   23.0125 C   0  0  0  0  0  0  0  0  0  0  0  0
    9.8106    2.9188   23.5531 O   0  0  0  0  0  0  0  0  0  0  0  0
   12.8834    3.8801   22.2177 H   0  0  0  0  0  0  0  0  0  0  0  0
 31 32  1  0  0  0
 32 33  1  0  0  0
 33 34  2  0  0  0
 33 30  1  0  0  0
 30  1  1  0  0  0
  1  2  1  0  0  0
  3  2  1  0  0  0
  3  4  1  0  0  0
  4  5  2  0  0  0
  4  6  1  0  0  0
  6 20  1  0  0  0
 20 21  2  0  0  0
 21 22  1  0  0  0
 22 23  2  0  0  0
 23 24  1  0  0  0
 24 25  2  0  0  0
 25 26  1  0  0  0
 26 27  2  0  0  0
 27 28  1  0  0  0
 28 29  2  0  0  0
  6  7  1  0  0  0
  7  8  1  0  0  0
  8  9  1  0  0  0
  9 10  1  0  0  0
  3 11  1  0  0  0
 11 12  2  0  0  0
 12 13  1  0  0  0
 13 14  1  0  0  0
 13 15  2  0  0  0
 15 16  1  0  0  0
 16 17  2  0  0  0
 17 18  1  0  0  0
 18 19  2  0  0  0
 18  1  1  0  0  0
  8  3  1  0  0  0
 17 11  1  0  0  0
 29 20  1  0  0  0
 10  8  1  0  0  0
 29 24  1  0  0  0
 32 35  1  0  0  0
M  END
> <minimizedAffinity>
-9.36217

> <CNNscore>
0.2936987281

> <CNNaffinity>
6.1869425774

> <CNN_VS>
1.8170971870

> <CNNaffinity_variance>
0.5019997358

$$$$



 35 40  0  0  0  0  0  0  0  0999 V2000
   10.5197   -0.0466   23.7563 N   0  0  0  0  0  0  0  0  0  0  0  0
    9.2795   -0.0786   22.9131 C   0  0  0  0  0  0  0  0  0  0  0  0
    8.0930   -0.8830   23.3548 C   0  0  0  0  0  0  0  0  0  0  0  0
    7.8931   -0.1653   22.0529 C   0  0  0  0  0  0  0  0  0  0  0  0
    8.8984    0.7104   21.3655 O   0  0  0  0  0  0  0  0  0  0  0  0
    6.5115   -0.4771   21.5590 N   0  0  0  0  0  0  0  0  0  0  0  0
    5.8574   -1.3875   22.5557 C   0  0  0  0  0  0  0  0  0  0  0  0
    6.8348   -1.6384   23.6656 C   0  0  0  0  0  0  0  0  0  0  0  0
    5.9373   -2.5355   24.4652 C   0  0  0  0  0  0  0  0  0  0  0  0
    7.3189   -2.2238   24.9590 C   0  0  0  0  0  0  0  0  0  0  0  0
    8.1467   -1.6554   24.6395 C   0  0  0  0  0  0  0  0  0  0  0  0
    8.4978   -1.6829   24.9371 C   0  0  0  0  0  0  0  0  0  0  0  0
    8.2648   -1.7084   24.8101 C   0  0  0  0  0  0  0  0  0  0  0  0
    5.8273   -4.0367   26.8074 Cl  0  0  0  0  0  0  0  0  0  0  0  0
    9.1867   -1.6846   25.4368 C   0  0  0  0  0  0  0  0  0  0  0  0
    8.9823   -1.6704   25.2664 C   0  0  0  0  0  0  0  0  0  0  0  0
    9.3869   -1.6234   25.4826 C   0  0  0  0  0  0  0  0  0  0  0  0
   10.5734   -0.8190   25.0409 C   0  0  0  0  0  0  0  0  0  0  0  0
   11.8137   -0.7870   25.8841 O   0  0  0  0  0  0  0  0  0  0  0  0
    5.8925    0.0321   20.2911 C   0  0  0  0  0  0  0  0  0  0  0  0
    6.4461   -0.3923   18.9631 C   0  0  0  0  0  0  0  0  0  0  0  0
    5.8272    0.1169   17.6952 N   0  0  0  0  0  0  0  0  0  0  0  0
    4.6547    1.0506   17.7552 C   0  0  0  0  0  0  0  0  0  0  0  0
    4.1011    1.4750   19.0832 C   0  0  0  0  0  0  0  0  0  0  0  0
    2.9286    2.4086   19.1432 C   0  0  0  0  0  0  0  0  0  0  0  0
    2.3751    2.8330   20.4711 C   0  0  0  0  0  0  0  0  0  0  0  0
    2.9940    2.3238   21.7391 C   0  0  0  0  0  0  0  0  0  0  0  0
    4.1665    1.3901   21.6791 C   0  0  0  0  0  0  0  0  0  0  0  0
    4.7201    0.9657   20.3511 C   0  0  0  0  0  0  0  0  0  0  0  0
   11.7062    0.7579   23.3147 C   0  0  0  0  0  0  0  0  0  0  0  0
   12.5645    4.4753   22.2221 C   0  0  0  0  0  0  0  0  0  0  0  0
   12.7105    3.0059   22.4853 N   0  0  0  0  0  0  0  0  0  0  0  0
   11.5602    2.2274   23.0515 C   0  0  0  0  0  0  0  0  0  0  0  0
   10.2638    2.9183   23.3545 O   0  0  0  0  0  0  0  0  0  0  0  0
   13.5614    2.5524   22.2864 H   0  0  0  0  0  0  0  0  0  0  0  0
 31 32  1  0  0  0
 32 33  1  0  0  0
 33 34  2  0  0  0
 33 30  1  0  0  0
 30  1  1  0  0  0
  1  2  1  0  0  0
  3  2  1  0  0  0
  3  4  1  0  0  0
  4  5  2  0  0  0
  4  6  1  0  0  0
  6 20  1  0  0  0
 20 21  2  0  0  0
 21 22  1  0  0  0
 22 23  2  0  0  0
 23 24  1  0  0  0
 24 25  2  0  0  0
 25 26  1  0  0  0
 26 27  2  0  0  0
 27 28  1  0  0  0
 28 29  2  0  0  0
  6  7  1  0  0  0
  7  8  1  0  0  0
  8  9  1  0  0  0
  9 10  1  0  0  0
  3 11  1  0  0  0
 11 12  2  0  0  0
 12 13  1  0  0  0
 13 14  1  0  0  0
 13 15  2  0  0  0
 15 16  1  0  0  0
 16 17  2  0  0  0
 17 18  1  0  0  0
 18 19  2  0  0  0
 18  1  1  0  0  0
  8  3  1  0  0  0
 17 11  1  0  0  0
 29 20  1  0  0  0
 10  8  1  0  0  0
 29 24  1  0  0  0
 32 35  1  0  0  0
M  END
> <minimizedAffinity>
-9.06229

> <CNNscore>
0.2865992785

> <CNNaffinity>
6.1113505363

> <CNN_VS>
1.7515087128

> <CNNaffinity_variance>
0.1883319914

$$$$



 35 40  0  0  0  0  0  0  0  0999 V2000
    5.3431    1.2265   19.5740 N   0  0  0  0  0  0  0  0  0  0  0  0
    5.8447    2.1152   20.6735 C   0  0  0  0  0  0  0  0  0  0  0  0
    7.0856    1.7444   21.4301 C   0  0  0  0  0  0  0  0  0  0  0  0
    6.4555    3.0281   21.8830 C   0  0  0  0  0  0  0  0  0  0  0  0
    5.2131    3.6485   21.3160 O   0  0  0  0  0  0  0  0  0  0  0  0
    7.2859    3.5823   23.0026 N   0  0  0  0  0  0  0  0  0  0  0  0
    8.4292    2.6412   23.2415 C   0  0  0  0  0  0  0  0  0  0  0  0
    8.3054    1.5053   22.2697 C   0  0  0  0  0  0  0  0  0  0  0  0
    9.5281    0.7695   22.7320 C   0  0  0  0  0  0  0  0  0  0  0  0
    8.6977    0.2153   21.6126 C   0  0  0  0  0  0  0  0  0  0  0  0
    7.8250    0.4851   21.0873 C   0  0  0  0  0  0  0  0  0  0  0  0
    7.7189    0.1759   20.7621 C   0  0  0  0  0  0  0  0  0  0  0  0
    7.8323    0.3121   20.9613 C   0  0  0  0  0  0  0  0  0  0  0  0
   11.0463   -1.5157   22.2579 Cl  0  0  0  0  0  0  0  0  0  0  0  0
    7.4594   -0.3484   20.1440 C   0  0  0  0  0  0  0  0  0  0  0  0
    7.5230   -0.1712   20.3326 C   0  0  0  0  0  0  0  0  0  0  0  0
    7.3234   -0.4034   19.9879 C   0  0  0  0  0  0  0  0  0  0  0  0
    6.0824   -0.0327   19.2312 C   0  0  0  0  0  0  0  0  0  0  0  0
    5.5808   -0.9213   18.1317 O   0  0  0  0  0  0  0  0  0  0  0  0
    7.0196    4.8543   23.7516 C   0  0  0  0  0  0  0  0  0  0  0  0
    7.2331    6.1787   23.0803 C   0  0  0  0  0  0  0  0  0  0  0  0
    6.9668    7.4508   23.8294 N   0  0  0  0  0  0  0  0  0  0  0  0
    6.4871    7.3984   25.2497 C   0  0  0  0  0  0  0  0  0  0  0  0
    6.2737    6.0741   25.9209 C   0  0  0  0  0  0  0  0  0  0  0  0
    5.7941    6.0218   27.3412 C   0  0  0  0  0  0  0  0  0  0  0  0
    5.5806    4.6974   28.0124 C   0  0  0  0  0  0  0  0  0  0  0  0
    5.8469    3.4254   27.2634 C   0  0  0  0  0  0  0  0  0  0  0  0
    6.3265    3.4777   25.8431 C   0  0  0  0  0  0  0  0  0  0  0  0
    6.5400    4.8020   25.1719 C   0  0  0  0  0  0  0  0  0  0  0  0
    4.1022    1.5973   18.8173 C   0  0  0  0  0  0  0  0  0  0  0  0
    1.5515    4.4083   19.9759 C   0  0  0  0  0  0  0  0  0  0  0  0
    2.6861    3.7284   19.2687 N   0  0  0  0  0  0  0  0  0  0  0  0
    2.9675    2.2774   19.5245 C   0  0  0  0  0  0  0  0  0  0  0  0
    2.1141    1.5064   20.4874 O   0  0  0  0  0  0  0  0  0  0  0  0
    3.2462    4.2344   18.6367 H   0  0  0  0  0  0  0  0  0  0  0  0
 31 32  1  0  0  0
 32 33  1  0  0  0
 33 34  2  0  0  0
 33 30  1  0  0  0
 30  1  1  0  0  0
  1  2  1  0  0  0
  3  2  1  0  0  0
  3  4  1  0  0  0
  4  5  2  0  0  0
  4  6  1  0  0  0
  6 20  1  0  0  0
 20 21  2  0  0  0
 21 22  1  0  0  0
 22 23  2  0  0  0
 23 24  1  0  0  0
 24 25  2  0  0  0
 25 26  1  0  0  0
 26 27  2  0  0  0
 27 28  1  0  0  0
 28 29  2  0  0  0
  6  7  1  0  0  0
  7  8  1  0  0  0
  8  9  1  0  0  0
  9 10  1  0  0  0
  3 11  1  0  0  0
 11 12  2  0  0  0
 12 13  1  0  0  0
 13 14  1  0  0  0
 13 15  2  0  0  0
 15 16  1  0  0  0
 16 17  2  0  0  0
 17 18  1  0  0  0
 18 19  2  0  0  0
 18  1  1  0  0  0
  8  3  1  0  0  0
 17 11  1  0  0  0
 29 20  1  0  0  0
 10  8  1  0  0  0
 29 24  1  0  0  0
 32 35  1  0  0  0
M  END
> <minimizedAffinity>
-8.58839

> <CNNscore>
0.2498685122

> <CNNaffinity>
5.7245430946

> <CNN_VS>
1.4303830862

> <CNNaffinity_variance>
0.2294769734

$$$$



 35 40  0  0  0  0  0  0  0  0999 V2000
    5.1398   -0.2945   21.4999 N   0  0  0  0  0  0  0  0  0  0  0  0
    6.0911   -0.6477   22.6047 C   0  0  0  0  0  0  0  0  0  0  0  0
    6.0279    0.0854   23.9118 C   0  0  0  0  0  0  0  0  0  0  0  0
    7.0904   -0.9719   23.8560 C   0  0  0  0  0  0  0  0  0  0  0  0
    7.3882   -1.8617   22.6858 O   0  0  0  0  0  0  0  0  0  0  0  0
    7.8028   -0.9832   25.1761 N   0  0  0  0  0  0  0  0  0  0  0  0
    7.1805    0.0672   26.0476 C   0  0  0  0  0  0  0  0  0  0  0  0
    6.0836    0.7276   25.2662 C   0  0  0  0  0  0  0  0  0  0  0  0
    5.6727    1.6816   26.3484 C   0  0  0  0  0  0  0  0  0  0  0  0
    4.9603    1.6929   25.0284 C   0  0  0  0  0  0  0  0  0  0  0  0
    5.0134    1.1716   24.1141 C   0  0  0  0  0  0  0  0  0  0  0  0
    4.6981    1.3222   23.8132 C   0  0  0  0  0  0  0  0  0  0  0  0
    4.8523    1.2828   24.0270 C   0  0  0  0  0  0  0  0  0  0  0  0
    3.8724    3.7240   26.9308 Cl  0  0  0  0  0  0  0  0  0  0  0  0
    4.1453    1.5452   23.2058 C   0  0  0  0  0  0  0  0  0  0  0  0
    4.3265    1.4601   23.3816 C   0  0  0  0  0  0  0  0  0  0  0  0
    4.0621    1.5248   23.0094 C   0  0  0  0  0  0  0  0  0  0  0  0
    4.1254    0.7917   21.7023 C   0  0  0  0  0  0  0  0  0  0  0  0
    3.1741    1.1448   20.5975 O   0  0  0  0  0  0  0  0  0  0  0  0
    8.9381   -1.8862   25.5576 C   0  0  0  0  0  0  0  0  0  0  0  0
    8.6812   -3.0968   26.4053 C   0  0  0  0  0  0  0  0  0  0  0  0
    9.8165   -3.9999   26.7868 N   0  0  0  0  0  0  0  0  0  0  0  0
   11.2087   -3.6924   26.3206 C   0  0  0  0  0  0  0  0  0  0  0  0
   11.4655   -2.4819   25.4729 C   0  0  0  0  0  0  0  0  0  0  0  0
   12.8577   -2.1744   25.0066 C   0  0  0  0  0  0  0  0  0  0  0  0
   13.1145   -0.9639   24.1589 C   0  0  0  0  0  0  0  0  0  0  0  0
   11.9792   -0.0608   23.7774 C   0  0  0  0  0  0  0  0  0  0  0  0
   10.5871   -0.3683   24.2437 C   0  0  0  0  0  0  0  0  0  0  0  0
   10.3302   -1.5788   25.0914 C   0  0  0  0  0  0  0  0  0  0  0  0
    5.2031   -1.0276   20.1928 C   0  0  0  0  0  0  0  0  0  0  0  0
    5.1907    1.2851   16.9677 C   0  0  0  0  0  0  0  0  0  0  0  0
    4.7256    0.5749   18.2043 N   0  0  0  0  0  0  0  0  0  0  0  0
    5.6682   -0.3173   18.9562 C   0  0  0  0  0  0  0  0  0  0  0  0
    7.0760   -0.4993   18.4715 O   0  0  0  0  0  0  0  0  0  0  0  0
    3.8016    0.6943   18.5224 H   0  0  0  0  0  0  0  0  0  0  0  0
 31 32  1  0  0  0
 32 33  1  0  0  0
 33 34  2  0  0  0
 33 30  1  0  0  0
 30  1  1  0  0  0
  1  2  1  0  0  0
  3  2  1  0  0  0
  3  4  1  0  0  0
  4  5  2  0  0  0
  4  6  1  0  0  0
  6 20  1  0  0  0
 20 21  2  0  0  0
 21 22  1  0  0  0
 22 23  2  0  0  0
 23 24  1  0  0  0
 24 25  2  0  0  0
 25 26  1  0  0  0
 26 27  2  0  0  0
 27 28  1  0  0  0
 28 29  2  0  0  0
  6  7  1  0  0  0
  7  8  1  0  0  0
  8  9  1  0  0  0
  9 10  1  0  0  0
  3 11  1  0  0  0
 11 12  2  0  0  0
 12 13  1  0  0  0
 13 14  1  0  0  0
 13 15  2  0  0  0
 15 16  1  0  0  0
 16 17  2  0  0  0
 17 18  1  0  0  0
 18 19  2  0  0  0
 18  1  1  0  0  0
  8  3  1  0  0  0
 17 11  1  0  0  0
 29 20  1  0  0  0
 10  8  1  0  0  0
 29 24  1  0  0  0
 32 35  1  0  0  0
M  END
> <minimizedAffinity>
-8.16486

> <CNNscore>
0.2415207922

> <CNNaffinity>
5.7589697838

> <CNN_VS>
1.3909109831

> <CNNaffinity_variance>
0.2322209179

$$$$



 35 40  0  0  0  0  0  0  0  0999 V2000
   10.4147   -0.9598   23.2611 N   0  0  0  0  0  0  0  0  0  0  0  0
    9.1590   -0.8385   22.4495 C   0  0  0  0  0  0  0  0  0  0  0  0
    8.0642   -1.8519   22.6058 C   0  0  0  0  0  0  0  0  0  0  0  0
    7.7624   -0.7772   21.6038 C   0  0  0  0  0  0  0  0  0  0  0  0
    8.6633    0.3648   21.2373 O   0  0  0  0  0  0  0  0  0  0  0  0
    6.4015   -1.0452   21.0325 N   0  0  0  0  0  0  0  0  0  0  0  0
    5.8623   -2.2854   21.6815 C   0  0  0  0  0  0  0  0  0  0  0  0
    6.8899   -2.7839   22.6539 C   0  0  0  0  0  0  0  0  0  0  0  0
    6.1015   -3.9718   23.1199 C   0  0  0  0  0  0  0  0  0  0  0  0
    7.4623   -3.7039   23.6912 C   0  0  0  0  0  0  0  0  0  0  0  0
    8.2251   -2.9865   23.5736 C   0  0  0  0  0  0  0  0  0  0  0  0
    8.5857   -3.0742   23.8474 C   0  0  0  0  0  0  0  0  0  0  0  0
    8.3524   -3.0798   23.7184 C   0  0  0  0  0  0  0  0  0  0  0  0
    6.1964   -6.1480   24.8540 Cl  0  0  0  0  0  0  0  0  0  0  0  0
    9.2858   -3.1700   24.3216 C   0  0  0  0  0  0  0  0  0  0  0  0
    9.0762   -3.1216   24.1644 C   0  0  0  0  0  0  0  0  0  0  0  0
    9.4808   -3.1078   24.3851 C   0  0  0  0  0  0  0  0  0  0  0  0
   10.5756   -2.0944   24.2288 C   0  0  0  0  0  0  0  0  0  0  0  0
   11.8313   -2.2157   25.0404 O   0  0  0  0  0  0  0  0  0  0  0  0
    5.7026   -0.2181   19.9945 C   0  0  0  0  0  0  0  0  0  0  0  0
    6.1072   -0.3239   18.5539 C   0  0  0  0  0  0  0  0  0  0  0  0
    5.4083    0.5032   17.5159 N   0  0  0  0  0  0  0  0  0  0  0  0
    4.3047    1.4361   17.9185 C   0  0  0  0  0  0  0  0  0  0  0  0
    3.9001    1.5418   19.3590 C   0  0  0  0  0  0  0  0  0  0  0  0
    2.7966    2.4746   19.7616 C   0  0  0  0  0  0  0  0  0  0  0  0
    2.3920    2.5803   21.2021 C   0  0  0  0  0  0  0  0  0  0  0  0
    3.0909    1.7532   22.2401 C   0  0  0  0  0  0  0  0  0  0  0  0
    4.1944    0.8204   21.8376 C   0  0  0  0  0  0  0  0  0  0  0  0
    4.5990    0.7147   20.3971 C   0  0  0  0  0  0  0  0  0  0  0  0
   11.5095    0.0536   23.1047 C   0  0  0  0  0  0  0  0  0  0  0  0
   11.9490    3.9978   23.0899 C   0  0  0  0  0  0  0  0  0  0  0  0
   12.2493    2.5376   22.9241 N   0  0  0  0  0  0  0  0  0  0  0  0
   11.2092    1.5139   23.2705 C   0  0  0  0  0  0  0  0  0  0  0  0
    9.8686    1.9504   23.7827 O   0  0  0  0  0  0  0  0  0  0  0  0
   13.1292    2.2512   22.5880 H   0  0  0  0  0  0  0  0  0  0  0  0
 31 32  1  0  0  0
 32 33  1  0  0  0
 33 34  2  0  0  0
 33 30  1  0  0  0
 30  1  1  0  0  0
  1  2  1  0  0  0
  3  2  1  0  0  0
  3  4  1  0  0  0
  4  5  2  0  0  0
  4  6  1  0  0  0
  6 20  1  0  0  0
 20 21  2  0  0  0
 21 22  1  0  0  0
 22 23  2  0  0  0
 23 24  1  0  0  0
 24 25  2  0  0  0
 25 26  1  0  0  0
 26 27  2  0  0  0
 27 28  1  0  0  0
 28 29  2  0  0  0
  6  7  1  0  0  0
  7  8  1  0  0  0
  8  9  1  0  0  0
  9 10  1  0  0  0
  3 11  1  0  0  0
 11 12  2  0  0  0
 12 13  1  0  0  0
 13 14  1  0  0  0
 13 15  2  0  0  0
 15 16  1  0  0  0
 16 17  2  0  0  0
 17 18  1  0  0  0
 18 19  2  0  0  0
 18  1  1  0  0  0
  8  3  1  0  0  0
 17 11  1  0  0  0
 29 20  1  0  0  0
 10  8  1  0  0  0
 29 24  1  0  0  0
 32 35  1  0  0  0
M  END
> <minimizedAffinity>
-9.54543

> <CNNscore>
0.2355350405

> <CNNaffinity>
6.1330461502

> <CNN_VS>
1.4445472956

> <CNNaffinity_variance>
0.2884213626

$$$$



 35 40  0  0  0  0  0  0  0  0999 V2000
    7.4629   -1.0413   22.0810 N   0  0  0  0  0  0  0  0  0  0  0  0
    8.3932    0.1166   22.2910 C   0  0  0  0  0  0  0  0  0  0  0  0
    9.6579   -0.0702   23.0756 C   0  0  0  0  0  0  0  0  0  0  0  0
    9.4577    1.3256   22.5642 C   0  0  0  0  0  0  0  0  0  0  0  0
    8.2921    1.8087   21.7530 O   0  0  0  0  0  0  0  0  0  0  0  0
   10.6278    2.1536   23.0064 N   0  0  0  0  0  0  0  0  0  0  0  0
   11.5511    1.2694   23.7910 C   0  0  0  0  0  0  0  0  0  0  0  0
   10.9517   -0.1049   23.8338 C   0  0  0  0  0  0  0  0  0  0  0  0
   12.0482   -0.7291   24.6450 C   0  0  0  0  0  0  0  0  0  0  0  0
   10.8782   -1.5570   24.2028 C   0  0  0  0  0  0  0  0  0  0  0  0
    9.9924   -1.4148   23.6501 C   0  0  0  0  0  0  0  0  0  0  0  0
    9.7468   -1.8038   23.6182 C   0  0  0  0  0  0  0  0  0  0  0  0
    9.9309   -1.6188   23.6723 C   0  0  0  0  0  0  0  0  0  0  0  0
   12.8565   -3.1330   25.7937 Cl  0  0  0  0  0  0  0  0  0  0  0  0
    9.2394   -2.4794   23.5162 C   0  0  0  0  0  0  0  0  0  0  0  0
    9.3834   -2.2560   23.5362 C   0  0  0  0  0  0  0  0  0  0  0  0
    9.0622   -2.5726   23.4401 C   0  0  0  0  0  0  0  0  0  0  0  0
    7.7974   -2.3858   22.6556 C   0  0  0  0  0  0  0  0  0  0  0  0
    6.8672   -3.5437   22.4456 O   0  0  0  0  0  0  0  0  0  0  0  0
   10.8376    3.6100   22.7150 C   0  0  0  0  0  0  0  0  0  0  0  0
   12.1219    4.0730   22.0935 C   0  0  0  0  0  0  0  0  0  0  0  0
   12.3318    5.5295   21.8021 N   0  0  0  0  0  0  0  0  0  0  0  0
   11.2574    6.5228   22.1324 C   0  0  0  0  0  0  0  0  0  0  0  0
    9.9732    6.0597   22.7539 C   0  0  0  0  0  0  0  0  0  0  0  0
    8.8988    7.0530   23.0841 C   0  0  0  0  0  0  0  0  0  0  0  0
    7.6146    6.5899   23.7057 C   0  0  0  0  0  0  0  0  0  0  0  0
    7.4047    5.1335   23.9970 C   0  0  0  0  0  0  0  0  0  0  0  0
    8.4791    4.1402   23.6668 C   0  0  0  0  0  0  0  0  0  0  0  0
    9.7633    4.6033   23.0452 C   0  0  0  0  0  0  0  0  0  0  0  0
    6.1982   -0.8544   21.2965 C   0  0  0  0  0  0  0  0  0  0  0  0
    5.0686    0.5881   17.7761 C   0  0  0  0  0  0  0  0  0  0  0  0
    5.0074    0.0936   19.1909 N   0  0  0  0  0  0  0  0  0  0  0  0
    6.2593   -0.3600   19.8816 C   0  0  0  0  0  0  0  0  0  0  0  0
    7.5723   -0.3191   19.1575 O   0  0  0  0  0  0  0  0  0  0  0  0
    4.1457    0.0668   19.6661 H   0  0  0  0  0  0  0  0  0  0  0  0
 31 32  1  0  0  0
 32 33  1  0  0  0
 33 34  2  0  0  0
 33 30  1  0  0  0
 30  1  1  0  0  0
  1  2  1  0  0  0
  3  2  1  0  0  0
  3  4  1  0  0  0
  4  5  2  0  0  0
  4  6  1  0  0  0
  6 20  1  0  0  0
 20 21  2  0  0  0
 21 22  1  0  0  0
 22 23  2  0  0  0
 23 24  1  0  0  0
 24 25  2  0  0  0
 25 26  1  0  0  0
 26 27  2  0  0  0
 27 28  1  0  0  0
 28 29  2  0  0  0
  6  7  1  0  0  0
  7  8  1  0  0  0
  8  9  1  0  0  0
  9 10  1  0  0  0
  3 11  1  0  0  0
 11 12  2  0  0  0
 12 13  1  0  0  0
 13 14  1  0  0  0
 13 15  2  0  0  0
 15 16  1  0  0  0
 16 17  2  0  0  0
 17 18  1  0  0  0
 18 19  2  0  0  0
 18  1  1  0  0  0
  8  3  1  0  0  0
 17 11  1  0  0  0
 29 20  1  0  0  0
 10  8  1  0  0  0
 29 24  1  0  0  0
 32 35  1  0  0  0
M  END
> <minimizedAffinity>
-8.88567

> <CNNscore>
0.2068386674

> <CNNaffinity>
6.1091394424

> <CNN_VS>
1.2636063099

> <CNNaffinity_variance>
0.1778726131

$$$$



 35 40  0  0  0  0  0  0  0  0999 V2000
    5.9146   -0.4213   21.1650 N   0  0  0  0  0  0  0  0  0  0  0  0
    7.1937   -0.3277   21.9430 C   0  0  0  0  0  0  0  0  0  0  0  0
    7.7190    1.0127   22.3641 C   0  0  0  0  0  0  0  0  0  0  0  0
    8.5775   -0.1408   22.7913 C   0  0  0  0  0  0  0  0  0  0  0  0
    8.3077   -1.5903   22.5155 O   0  0  0  0  0  0  0  0  0  0  0  0
    9.7532    0.4099   23.5426 N   0  0  0  0  0  0  0  0  0  0  0  0
    9.6213    1.9036   23.5799 C   0  0  0  0  0  0  0  0  0  0  0  0
    8.3640    2.2761   22.8515 C   0  0  0  0  0  0  0  0  0  0  0  0
    8.5009    3.7566   23.0497 C   0  0  0  0  0  0  0  0  0  0  0  0
    7.3252    3.2061   22.2983 C   0  0  0  0  0  0  0  0  0  0  0  0
    6.9651    2.2594   22.0074 C   0  0  0  0  0  0  0  0  0  0  0  0
    6.5700    2.2920   21.7719 C   0  0  0  0  0  0  0  0  0  0  0  0
    6.7928    2.3411   21.9099 C   0  0  0  0  0  0  0  0  0  0  0  0
    7.2619    6.1871   22.4931 Cl  0  0  0  0  0  0  0  0  0  0  0  0
    5.8420    2.2715   21.3317 C   0  0  0  0  0  0  0  0  0  0  0  0
    6.0704    2.2554   21.4680 C   0  0  0  0  0  0  0  0  0  0  0  0
    5.6860    2.1658   21.2295 C   0  0  0  0  0  0  0  0  0  0  0  0
    5.1608    0.8254   20.8083 C   0  0  0  0  0  0  0  0  0  0  0  0
    3.8817    0.7319   20.0303 O   0  0  0  0  0  0  0  0  0  0  0  0
   10.8656   -0.3924   24.1501 C   0  0  0  0  0  0  0  0  0  0  0  0
   12.2909   -0.0859   23.7969 C   0  0  0  0  0  0  0  0  0  0  0  0
   13.4033   -0.8882   24.4044 N   0  0  0  0  0  0  0  0  0  0  0  0
   13.0903   -1.9970   25.3651 C   0  0  0  0  0  0  0  0  0  0  0  0
   11.6651   -2.3034   25.7183 C   0  0  0  0  0  0  0  0  0  0  0  0
   11.3522   -3.4121   26.6789 C   0  0  0  0  0  0  0  0  0  0  0  0
    9.9269   -3.7185   27.0321 C   0  0  0  0  0  0  0  0  0  0  0  0
    8.8146   -2.9162   26.4246 C   0  0  0  0  0  0  0  0  0  0  0  0
    9.1275   -1.8075   25.4639 C   0  0  0  0  0  0  0  0  0  0  0  0
   10.5527   -1.5011   25.1108 C   0  0  0  0  0  0  0  0  0  0  0  0
    5.3893   -1.7617   20.7438 C   0  0  0  0  0  0  0  0  0  0  0  0
    5.6958   -3.8172   24.1247 C   0  0  0  0  0  0  0  0  0  0  0  0
    5.6739   -2.6669   23.1625 N   0  0  0  0  0  0  0  0  0  0  0  0
    5.4113   -2.9121   21.7062 C   0  0  0  0  0  0  0  0  0  0  0  0
    5.1705   -4.3078   21.2122 O   0  0  0  0  0  0  0  0  0  0  0  0
    5.8319   -1.7508   23.4867 H   0  0  0  0  0  0  0  0  0  0  0  0
 31 32  1  0  0  0
 32 33  1  0  0  0
 33 34  2  0  0  0
 33 30  1  0  0  0
 30  1  1  0  0  0
  1  2  1  0  0  0
  3  2  1  0  0  0
  3  4  1  0  0  0
  4  5  2  0  0  0
  4  6  1  0  0  0
  6 20  1  0  0  0
 20 21  2  0  0  0
 21 22  1  0  0  0
 22 23  2  0  0  0
 23 24  1  0  0  0
 24 25  2  0  0  0
 25 26  1  0  0  0
 26 27  2  0  0  0
 27 28  1  0  0  0
 28 29  2  0  0  0
  6  7  1  0  0  0
  7  8  1  0  0  0
  8  9  1  0  0  0
  9 10  1  0  0  0
  3 11  1  0  0  0
 11 12  2  0  0  0
 12 13  1  0  0  0
 13 14  1  0  0  0
 13 15  2  0  0  0
 15 16  1  0  0  0
 16 17  2  0  0  0
 17 18  1  0  0  0
 18 19  2  0  0  0
 18  1  1  0  0  0
  8  3  1  0  0  0
 17 11  1  0  0  0
 29 20  1  0  0  0
 10  8  1  0  0  0
 29 24  1  0  0  0
 32 35  1  0  0  0
M  END
> <minimizedAffinity>
-8.95736

> <CNNscore>
0.1796562076

> <CNNaffinity>
6.0985226631

> <CNN_VS>
1.0956374407

> <CNNaffinity_variance>
0.2054896802

$$$$



 35 40  0  0  0  0  0  0  0  0999 V2000
    5.6218    1.0260   20.0798 N   0  0  0  0  0  0  0  0  0  0  0  0
    6.8619    1.0357   20.9238 C   0  0  0  0  0  0  0  0  0  0  0  0
    7.1498    2.2034   21.8202 C   0  0  0  0  0  0  0  0  0  0  0  0
    8.1888    1.1228   21.8731 C   0  0  0  0  0  0  0  0  0  0  0  0
    8.1703   -0.1572   21.0913 O   0  0  0  0  0  0  0  0  0  0  0  0
    9.2496    1.5471   22.8451 N   0  0  0  0  0  0  0  0  0  0  0  0
    8.8662    2.8898   23.3929 C   0  0  0  0  0  0  0  0  0  0  0  0
    7.5684    3.2954   22.7595 C   0  0  0  0  0  0  0  0  0  0  0  0
    7.4511    4.6108   23.4707 C   0  0  0  0  0  0  0  0  0  0  0  0
    6.3903    4.1866   22.4988 C   0  0  0  0  0  0  0  0  0  0  0  0
    6.1977    3.3613   21.8725 C   0  0  0  0  0  0  0  0  0  0  0  0
    5.8042    3.4133   21.6378 C   0  0  0  0  0  0  0  0  0  0  0  0
    6.0146    3.4442   21.7986 C   0  0  0  0  0  0  0  0  0  0  0  0
    5.8215    6.8547   23.7178 Cl  0  0  0  0  0  0  0  0  0  0  0  0
    5.0929    3.4370   21.1712 C   0  0  0  0  0  0  0  0  0  0  0  0
    5.3198    3.4094   21.3081 C   0  0  0  0  0  0  0  0  0  0  0  0
    4.9577    3.3516   21.0285 C   0  0  0  0  0  0  0  0  0  0  0  0
    4.6698    2.1838   20.1322 C   0  0  0  0  0  0  0  0  0  0  0  0
    3.4298    2.1741   19.2881 O   0  0  0  0  0  0  0  0  0  0  0  0
   10.4782    0.7658   23.2060 C   0  0  0  0  0  0  0  0  0  0  0  0
   11.8010    1.1244   22.5963 C   0  0  0  0  0  0  0  0  0  0  0  0
   13.0296    0.3430   22.9571 N   0  0  0  0  0  0  0  0  0  0  0  0
   12.9353   -0.7969   23.9277 C   0  0  0  0  0  0  0  0  0  0  0  0
   11.6125   -1.1554   24.5373 C   0  0  0  0  0  0  0  0  0  0  0  0
   11.5182   -2.2953   25.5077 C   0  0  0  0  0  0  0  0  0  0  0  0
   10.1954   -2.6538   26.1173 C   0  0  0  0  0  0  0  0  0  0  0  0
    8.9669   -1.8725   25.7565 C   0  0  0  0  0  0  0  0  0  0  0  0
    9.0611   -0.7326   24.7860 C   0  0  0  0  0  0  0  0  0  0  0  0
   10.3839   -0.3741   24.1764 C   0  0  0  0  0  0  0  0  0  0  0  0
    5.3339   -0.1418   19.1834 C   0  0  0  0  0  0  0  0  0  0  0  0
    5.4588   -3.1356   21.7856 C   0  0  0  0  0  0  0  0  0  0  0  0
    5.4933   -1.7467   21.2204 N   0  0  0  0  0  0  0  0  0  0  0  0
    5.2994   -1.5308   19.7487 C   0  0  0  0  0  0  0  0  0  0  0  0
    5.0710   -2.7039   18.8423 O   0  0  0  0  0  0  0  0  0  0  0  0
    5.6432   -0.9767   21.8153 H   0  0  0  0  0  0  0  0  0  0  0  0
 31 32  1  0  0  0
 32 33  1  0  0  0
 33 34  2  0  0  0
 33 30  1  0  0  0
 30  1  1  0  0  0
  1  2  1  0  0  0
  3  2  1  0  0  0
  3  4  1  0  0  0
  4  5  2  0  0  0
  4  6  1  0  0  0
  6 20  1  0  0  0
 20 21  2  0  0  0
 21 22  1  0  0  0
 22 23  2  0  0  0
 23 24  1  0  0  0
 24 25  2  0  0  0
 25 26  1  0  0  0
 26 27  2  0  0  0
 27 28  1  0  0  0
 28 29  2  0  0  0
  6  7  1  0  0  0
  7  8  1  0  0  0
  8  9  1  0  0  0
  9 10  1  0  0  0
  3 11  1  0  0  0
 11 12  2  0  0  0
 12 13  1  0  0  0
 13 14  1  0  0  0
 13 15  2  0  0  0
 15 16  1  0  0  0
 16 17  2  0  0  0
 17 18  1  0  0  0
 18 19  2  0  0  0
 18  1  1  0  0  0
  8  3  1  0  0  0
 17 11  1  0  0  0
 29 20  1  0  0  0
 10  8  1  0  0  0
 29 24  1  0  0  0
 32 35  1  0  0  0
M  END
> <minimizedAffinity>
-9.59128

> <CNNscore>
0.1658554524

> <CNNaffinity>
5.7185740471

> <CNN_VS>
0.9484567046

> <CNNaffinity_variance>
0.2721991539

$$$$



 35 40  0  0  0  0  0  0  0  0999 V2000
    9.8228    0.8072   22.7879 N   0  0  0  0  0  0  0  0  0  0  0  0
    9.1633   -0.4702   23.2161 C   0  0  0  0  0  0  0  0  0  0  0  0
    9.9043   -1.4417   24.0863 C   0  0  0  0  0  0  0  0  0  0  0  0
    8.5165   -1.8816   23.7251 C   0  0  0  0  0  0  0  0  0  0  0  0
    7.5445   -1.1215   22.8723 O   0  0  0  0  0  0  0  0  0  0  0  0
    8.2714   -3.2153   24.3665 N   0  0  0  0  0  0  0  0  0  0  0  0
    9.5077   -3.5996   25.1240 C   0  0  0  0  0  0  0  0  0  0  0  0
   10.5169   -2.5034   24.9509 C   0  0  0  0  0  0  0  0  0  0  0  0
   11.5891   -3.1449   25.7809 C   0  0  0  0  0  0  0  0  0  0  0  0
   11.8342   -1.8113   25.1395 C   0  0  0  0  0  0  0  0  0  0  0  0
   11.3047   -1.1358   24.5282 C   0  0  0  0  0  0  0  0  0  0  0  0
   11.5562   -0.7623   24.4287 C   0  0  0  0  0  0  0  0  0  0  0  0
   11.4668   -0.9960   24.5208 C   0  0  0  0  0  0  0  0  0  0  0  0
   14.1870   -2.7729   26.7105 Cl  0  0  0  0  0  0  0  0  0  0  0  0
   11.9569   -0.0464   24.2024 C   0  0  0  0  0  0  0  0  0  0  0  0
   11.8137   -0.2633   24.2615 C   0  0  0  0  0  0  0  0  0  0  0  0
   11.9641    0.1417   24.1000 C   0  0  0  0  0  0  0  0  0  0  0  0
   11.2231    1.1131   23.2299 C   0  0  0  0  0  0  0  0  0  0  0  0
   11.8826    2.3906   22.8016 O   0  0  0  0  0  0  0  0  0  0  0  0
    7.0112   -4.0229   24.2677 C   0  0  0  0  0  0  0  0  0  0  0  0
    6.6838   -4.7495   22.9968 C   0  0  0  0  0  0  0  0  0  0  0  0
    5.4236   -5.5571   22.8980 N   0  0  0  0  0  0  0  0  0  0  0  0
    4.4909   -5.6381   24.0700 C   0  0  0  0  0  0  0  0  0  0  0  0
    4.8183   -4.9115   25.3407 C   0  0  0  0  0  0  0  0  0  0  0  0
    3.8856   -4.9925   26.5127 C   0  0  0  0  0  0  0  0  0  0  0  0
    4.2130   -4.2659   27.7834 C   0  0  0  0  0  0  0  0  0  0  0  0
    5.4732   -3.4583   27.8822 C   0  0  0  0  0  0  0  0  0  0  0  0
    6.4059   -3.3773   26.7103 C   0  0  0  0  0  0  0  0  0  0  0  0
    6.0785   -4.1039   25.4396 C   0  0  0  0  0  0  0  0  0  0  0  0
    9.0818    1.7787   21.9178 C   0  0  0  0  0  0  0  0  0  0  0  0
    5.9980    4.2614   22.1931 C   0  0  0  0  0  0  0  0  0  0  0  0
    7.0733    3.3968   21.6050 N   0  0  0  0  0  0  0  0  0  0  0  0
    8.0064    2.6434   22.5059 C   0  0  0  0  0  0  0  0  0  0  0  0
    7.8641    2.7546   23.9950 O   0  0  0  0  0  0  0  0  0  0  0  0
    7.1667    3.3238   20.6277 H   0  0  0  0  0  0  0  0  0  0  0  0
 31 32  1  0  0  0
 32 33  1  0  0  0
 33 34  2  0  0  0
 33 30  1  0  0  0
 30  1  1  0  0  0
  1  2  1  0  0  0
  3  2  1  0  0  0
  3  4  1  0  0  0
  4  5  2  0  0  0
  4  6  1  0  0  0
  6 20  1  0  0  0
 20 21  2  0  0  0
 21 22  1  0  0  0
 22 23  2  0  0  0
 23 24  1  0  0  0
 24 25  2  0  0  0
 25 26  1  0  0  0
 26 27  2  0  0  0
 27 28  1  0  0  0
 28 29  2  0  0  0
  6  7  1  0  0  0
  7  8  1  0  0  0
  8  9  1  0  0  0
  9 10  1  0  0  0
  3 11  1  0  0  0
 11 12  2  0  0  0
 12 13  1  0  0  0
 13 14  1  0  0  0
 13 15  2  0  0  0
 15 16  1  0  0  0
 16 17  2  0  0  0
 17 18  1  0  0  0
 18 19  2  0  0  0
 18  1  1  0  0  0
  8  3  1  0  0  0
 17 11  1  0  0  0
 29 20  1  0  0  0
 10  8  1  0  0  0
 29 24  1  0  0  0
 32 35  1  0  0  0
M  END
> <minimizedAffinity>
-9.40435

> <CNNscore>
0.1578078270

> <CNNaffinity>
6.0282902718

> <CNN_VS>
0.9513114095

> <CNNaffinity_variance>
0.0245824400

$$$$
