


 39 44  0  0  0  0  0  0  0  0999 V2000
   -7.1888   -1.0557  -23.3460 N   0  0  0  0  0  0  0  0  0  0  0  0
   -7.6090    0.3756  -23.5034 C   0  0  0  0  0  0  0  0  0  0  0  0
   -9.0652    0.7352  -23.4942 C   0  0  0  0  0  0  0  0  0  0  0  0
  -10.4763    1.2438  -23.5046 C   0  0  0  0  0  0  0  0  0  0  0  0
  -11.6153    0.8307  -23.4136 O   0  0  0  0  0  0  0  0  0  0  0  0
  -10.4312    2.7322  -23.6857 N   0  0  0  0  0  0  0  0  0  0  0  0
   -8.9923    3.1434  -23.7872 C   0  0  0  0  0  0  0  0  0  0  0  0
   -8.1481    1.9092  -23.6689 C   0  0  0  0  0  0  0  0  0  0  0  0
   -6.6497    1.8580  -23.7169 C   0  0  0  0  0  0  0  0  0  0  0  0
  -10.1013   -0.3367  -23.3275 C   0  0  0  0  0  0  0  0  0  0  0  0
  -11.5575    0.0229  -23.3183 C   0  0  0  0  0  0  0  0  0  0  0  0
  -12.5936   -1.0489  -23.1516 C   0  0  0  0  0  0  0  0  0  0  0  0
  -14.0499   -0.6894  -23.1423 Cl  0  0  0  0  0  0  0  0  0  0  0  0
  -12.1734   -2.4802  -22.9942 C   0  0  0  0  0  0  0  0  0  0  0  0
  -10.7172   -2.8398  -23.0034 C   0  0  0  0  0  0  0  0  0  0  0  0
   -9.6812   -1.7680  -23.1701 C   0  0  0  0  0  0  0  0  0  0  0  0
   -8.2249   -2.1275  -23.1794 C   0  0  0  0  0  0  0  0  0  0  0  0
   -7.8047   -3.5588  -23.0219 O   0  0  0  0  0  0  0  0  0  0  0  0
  -11.6170    3.6484  -23.7533 C   0  0  0  0  0  0  0  0  0  0  0  0
  -12.4836    3.8439  -22.5447 C   0  0  0  0  0  0  0  0  0  0  0  0
  -13.6694    4.7602  -22.6124 N   0  0  0  0  0  0  0  0  0  0  0  0
  -13.9884    5.4808  -23.8886 C   0  0  0  0  0  0  0  0  0  0  0  0
  -13.1218    5.2852  -25.0972 C   0  0  0  0  0  0  0  0  0  0  0  0
  -13.4409    6.0059  -26.3735 C   0  0  0  0  0  0  0  0  0  0  0  0
  -12.5742    5.8103  -27.5820 C   0  0  0  0  0  0  0  0  0  0  0  0
  -11.3885    4.8941  -27.5144 C   0  0  0  0  0  0  0  0  0  0  0  0
  -11.0694    4.1734  -26.2381 C   0  0  0  0  0  0  0  0  0  0  0  0
  -11.9360    4.3690  -25.0295 C   0  0  0  0  0  0  0  0  0  0  0  0
   -5.7325   -1.4152  -23.3553 C   0  0  0  0  0  0  0  0  0  0  0  0
   -4.8003   -0.7939  -22.3578 C   0  0  0  0  0  0  0  0  0  0  0  0
   -4.6921    1.6455  -20.6150 C   0  0  0  0  0  0  0  0  0  0  0  0
   -5.0342    0.3123  -20.0187 C   0  0  0  0  0  0  0  0  0  0  0  0
   -5.3221    0.1988  -18.5510 C   0  0  0  0  0  0  0  0  0  0  0  0
   -5.6642   -1.1344  -17.9547 O   0  0  0  0  0  0  0  0  0  0  0  0
   -5.7183   -2.3541  -18.8262 C   0  0  0  0  0  0  0  0  0  0  0  0
   -5.4303   -2.2406  -20.2938 C   0  0  0  0  0  0  0  0  0  0  0  0
   -5.4844   -3.4603  -21.1652 C   0  0  0  0  0  0  0  0  0  0  0  0
   -5.0883   -0.9074  -20.8901 N   0  0  0  0  0  0  0  0  0  0  0  0
   -5.1250   -1.7368  -21.4827 H   0  0  0  0  0  0  0  0  0  0  0  0
 32 31  1  0  0  0
 32 33  1  0  0  0
 33 34  1  0  0  0
 34 35  1  0  0  0
 35 36  1  0  0  0
 36 37  1  0  0  0
 36 38  1  0  0  0
 38 30  1  0  0  0
 30 29  1  0  0  0
 29  1  1  0  0  0
  1  2  1  0  0  0
  3  2  1  0  0  0
  3  4  1  0  0  0
  4  5  2  0  0  0
  4  6  1  0  0  0
  6 19  1  0  0  0
 19 20  2  0  0  0
 20 21  1  0  0  0
 21 22  2  0  0  0
 22 23  1  0  0  0
 23 24  2  0  0  0
 24 25  1  0  0  0
 25 26  2  0  0  0
 26 27  1  0  0  0
 27 28  2  0  0  0
  6  7  1  0  0  0
  7  8  1  0  0  0
  8  9  1  0  0  0
  3 10  1  0  0  0
 10 11  2  0  0  0
 11 12  1  0  0  0
 12 13  1  0  0  0
 12 14  2  0  0  0
 14 15  1  0  0  0
 15 16  2  0  0  0
 16 17  1  0  0  0
 17 18  2  0  0  0
 38 32  1  0  0  0
 17  1  1  0  0  0
  8  3  1  0  0  0
 16 10  1  0  0  0
 28 19  1  0  0  0
 28 23  1  0  0  0
 38 39  1  0  0  0
M  CHG 1  38   1
M  END
> <minimizedAffinity>
-9.32362

> <CNNscore>
0.7324463129

> <CNNaffinity>
7.0929732323

> <CNN_VS>
5.1952219009

> <CNNaffinity_variance>
0.0412908718

$$$$



 39 44  0  0  0  0  0  0  0  0999 V2000
   -7.8221   -1.8329  -24.2756 N   0  0  0  0  0  0  0  0  0  0  0  0
   -8.1066   -0.3639  -24.3813 C   0  0  0  0  0  0  0  0  0  0  0  0
   -9.4788    0.1582  -24.0742 C   0  0  0  0  0  0  0  0  0  0  0  0
  -10.7950    0.8234  -23.8000 C   0  0  0  0  0  0  0  0  0  0  0  0
  -11.9266    0.5423  -23.4582 O   0  0  0  0  0  0  0  0  0  0  0  0
  -10.6267    2.2962  -24.0290 N   0  0  0  0  0  0  0  0  0  0  0  0
   -9.2064    2.5414  -24.4446 C   0  0  0  0  0  0  0  0  0  0  0  0
   -8.4970    1.2200  -24.4725 C   0  0  0  0  0  0  0  0  0  0  0  0
   -7.0583    0.9993  -24.8352 C   0  0  0  0  0  0  0  0  0  0  0  0
  -10.5665   -0.7886  -23.6613 C   0  0  0  0  0  0  0  0  0  0  0  0
  -11.9387   -0.2664  -23.3542 C   0  0  0  0  0  0  0  0  0  0  0  0
  -13.0264   -1.2132  -22.9414 C   0  0  0  0  0  0  0  0  0  0  0  0
  -14.3987   -0.6910  -22.6343 Cl  0  0  0  0  0  0  0  0  0  0  0  0
  -12.7419   -2.6822  -22.8357 C   0  0  0  0  0  0  0  0  0  0  0  0
  -11.3697   -3.2043  -23.1428 C   0  0  0  0  0  0  0  0  0  0  0  0
  -10.2820   -2.2575  -23.5556 C   0  0  0  0  0  0  0  0  0  0  0  0
   -8.9098   -2.7797  -23.8628 C   0  0  0  0  0  0  0  0  0  0  0  0
   -8.6253   -4.2487  -23.7571 O   0  0  0  0  0  0  0  0  0  0  0  0
  -11.6917    3.3405  -23.8701 C   0  0  0  0  0  0  0  0  0  0  0  0
  -12.5232    3.3801  -22.6223 C   0  0  0  0  0  0  0  0  0  0  0  0
  -13.5882    4.4244  -22.4635 N   0  0  0  0  0  0  0  0  0  0  0  0
  -13.8216    5.4291  -23.5525 C   0  0  0  0  0  0  0  0  0  0  0  0
  -12.9901    5.3896  -24.8003 C   0  0  0  0  0  0  0  0  0  0  0  0
  -13.2236    6.3944  -25.8893 C   0  0  0  0  0  0  0  0  0  0  0  0
  -12.3921    6.3548  -27.1371 C   0  0  0  0  0  0  0  0  0  0  0  0
  -11.3271    5.3105  -27.2959 C   0  0  0  0  0  0  0  0  0  0  0  0
  -11.0936    4.3057  -26.2070 C   0  0  0  0  0  0  0  0  0  0  0  0
  -11.9251    4.3453  -24.9591 C   0  0  0  0  0  0  0  0  0  0  0  0
   -6.4498   -2.3551  -24.5827 C   0  0  0  0  0  0  0  0  0  0  0  0
   -6.1669   -2.9820  -25.9158 C   0  0  0  0  0  0  0  0  0  0  0  0
   -8.7763   -3.2293  -27.3751 C   0  0  0  0  0  0  0  0  0  0  0  0
   -8.0244   -4.4620  -26.9688 C   0  0  0  0  0  0  0  0  0  0  0  0
   -8.5772   -5.8185  -27.2922 C   0  0  0  0  0  0  0  0  0  0  0  0
   -7.8253   -7.0512  -26.8859 O   0  0  0  0  0  0  0  0  0  0  0  0
   -6.5205   -6.9275  -26.1562 C   0  0  0  0  0  0  0  0  0  0  0  0
   -5.9677   -5.5711  -25.8329 C   0  0  0  0  0  0  0  0  0  0  0  0
   -4.6631   -5.4474  -25.1032 C   0  0  0  0  0  0  0  0  0  0  0  0
   -6.7197   -4.3384  -26.2391 N   0  0  0  0  0  0  0  0  0  0  0  0
   -5.8325   -4.2542  -25.7430 H   0  0  0  0  0  0  0  0  0  0  0  0
 32 31  1  0  0  0
 32 33  1  0  0  0
 33 34  1  0  0  0
 34 35  1  0  0  0
 35 36  1  0  0  0
 36 37  1  0  0  0
 36 38  1  0  0  0
 38 30  1  0  0  0
 30 29  1  0  0  0
 29  1  1  0  0  0
  1  2  1  0  0  0
  3  2  1  0  0  0
  3  4  1  0  0  0
  4  5  2  0  0  0
  4  6  1  0  0  0
  6 19  1  0  0  0
 19 20  2  0  0  0
 20 21  1  0  0  0
 21 22  2  0  0  0
 22 23  1  0  0  0
 23 24  2  0  0  0
 24 25  1  0  0  0
 25 26  2  0  0  0
 26 27  1  0  0  0
 27 28  2  0  0  0
  6  7  1  0  0  0
  7  8  1  0  0  0
  8  9  1  0  0  0
  3 10  1  0  0  0
 10 11  2  0  0  0
 11 12  1  0  0  0
 12 13  1  0  0  0
 12 14  2  0  0  0
 14 15  1  0  0  0
 15 16  2  0  0  0
 16 17  1  0  0  0
 17 18  2  0  0  0
 38 32  1  0  0  0
 17  1  1  0  0  0
  8  3  1  0  0  0
 16 10  1  0  0  0
 28 19  1  0  0  0
 28 23  1  0  0  0
 38 39  1  0  0  0
M  CHG 1  38   1
M  END
> <minimizedAffinity>
-7.60724

> <CNNscore>
0.7191815972

> <CNNaffinity>
7.0083785057

> <CNN_VS>
5.0402970314

> <CNNaffinity_variance>
0.0397824198

$$$$



 39 44  0  0  0  0  0  0  0  0999 V2000
   -7.0941   -1.0167  -23.4135 N   0  0  0  0  0  0  0  0  0  0  0  0
   -7.4834    0.4271  -23.5307 C   0  0  0  0  0  0  0  0  0  0  0  0
   -8.9321    0.8160  -23.5262 C   0  0  0  0  0  0  0  0  0  0  0  0
  -10.3324    1.3535  -23.5362 C   0  0  0  0  0  0  0  0  0  0  0  0
  -11.4806    0.9612  -23.4707 O   0  0  0  0  0  0  0  0  0  0  0  0
  -10.2553    2.8455  -23.6703 N   0  0  0  0  0  0  0  0  0  0  0  0
   -8.8073    3.2301  -23.7432 C   0  0  0  0  0  0  0  0  0  0  0  0
   -7.9895    1.9758  -23.6542 C   0  0  0  0  0  0  0  0  0  0  0  0
   -6.4920    1.8954  -23.6873 C   0  0  0  0  0  0  0  0  0  0  0  0
   -9.9915   -0.2390  -23.4045 C   0  0  0  0  0  0  0  0  0  0  0  0
  -11.4402    0.1498  -23.4000 C   0  0  0  0  0  0  0  0  0  0  0  0
  -12.4995   -0.9051  -23.2782 C   0  0  0  0  0  0  0  0  0  0  0  0
  -13.9483   -0.5163  -23.2737 Cl  0  0  0  0  0  0  0  0  0  0  0  0
  -12.1101   -2.3489  -23.1609 C   0  0  0  0  0  0  0  0  0  0  0  0
  -10.6615   -2.7378  -23.1654 C   0  0  0  0  0  0  0  0  0  0  0  0
   -9.6021   -1.6829  -23.2872 C   0  0  0  0  0  0  0  0  0  0  0  0
   -8.1534   -2.0717  -23.2917 C   0  0  0  0  0  0  0  0  0  0  0  0
   -7.7640   -3.5155  -23.1744 O   0  0  0  0  0  0  0  0  0  0  0  0
  -11.4215    3.7875  -23.7223 C   0  0  0  0  0  0  0  0  0  0  0  0
  -12.4061    3.8254  -22.5913 C   0  0  0  0  0  0  0  0  0  0  0  0
  -13.5722    4.7674  -22.6434 N   0  0  0  0  0  0  0  0  0  0  0  0
  -13.7538    5.6715  -23.8264 C   0  0  0  0  0  0  0  0  0  0  0  0
  -12.7691    5.6337  -24.9574 C   0  0  0  0  0  0  0  0  0  0  0  0
  -12.9507    6.5379  -26.1405 C   0  0  0  0  0  0  0  0  0  0  0  0
  -11.9660    6.4999  -27.2714 C   0  0  0  0  0  0  0  0  0  0  0  0
  -10.7999    5.5579  -27.2193 C   0  0  0  0  0  0  0  0  0  0  0  0
  -10.6184    4.6538  -26.0363 C   0  0  0  0  0  0  0  0  0  0  0  0
  -11.6030    4.6917  -24.9053 C   0  0  0  0  0  0  0  0  0  0  0  0
   -5.6453   -1.4056  -23.4179 C   0  0  0  0  0  0  0  0  0  0  0  0
   -4.7134   -0.8385  -22.3884 C   0  0  0  0  0  0  0  0  0  0  0  0
   -5.4761   -3.5250  -21.2926 C   0  0  0  0  0  0  0  0  0  0  0  0
   -5.4060   -2.3356  -20.3813 C   0  0  0  0  0  0  0  0  0  0  0  0
   -5.7173   -2.4896  -18.9220 C   0  0  0  0  0  0  0  0  0  0  0  0
   -5.6472   -1.3002  -18.0107 O   0  0  0  0  0  0  0  0  0  0  0  0
   -5.2658    0.0431  -18.5586 C   0  0  0  0  0  0  0  0  0  0  0  0
   -4.9546    0.1970  -20.0179 C   0  0  0  0  0  0  0  0  0  0  0  0
   -4.5732    1.5402  -20.5657 C   0  0  0  0  0  0  0  0  0  0  0  0
   -5.0246   -0.9924  -20.9292 N   0  0  0  0  0  0  0  0  0  0  0  0
   -4.7653   -0.0790  -21.3018 H   0  0  0  0  0  0  0  0  0  0  0  0
 32 31  1  0  0  0
 32 33  1  0  0  0
 33 34  1  0  0  0
 34 35  1  0  0  0
 35 36  1  0  0  0
 36 37  1  0  0  0
 36 38  1  0  0  0
 38 30  1  0  0  0
 30 29  1  0  0  0
 29  1  1  0  0  0
  1  2  1  0  0  0
  3  2  1  0  0  0
  3  4  1  0  0  0
  4  5  2  0  0  0
  4  6  1  0  0  0
  6 19  1  0  0  0
 19 20  2  0  0  0
 20 21  1  0  0  0
 21 22  2  0  0  0
 22 23  1  0  0  0
 23 24  2  0  0  0
 24 25  1  0  0  0
 25 26  2  0  0  0
 26 27  1  0  0  0
 27 28  2  0  0  0
  6  7  1  0  0  0
  7  8  1  0  0  0
  8  9  1  0  0  0
  3 10  1  0  0  0
 10 11  2  0  0  0
 11 12  1  0  0  0
 12 13  1  0  0  0
 12 14  2  0  0  0
 14 15  1  0  0  0
 15 16  2  0  0  0
 16 17  1  0  0  0
 17 18  2  0  0  0
 38 32  1  0  0  0
 17  1  1  0  0  0
  8  3  1  0  0  0
 16 10  1  0  0  0
 28 19  1  0  0  0
 28 23  1  0  0  0
 38 39  1  0  0  0
M  CHG 1  38   1
M  END
> <minimizedAffinity>
-9.04079

> <CNNscore>
0.7016369700

> <CNNaffinity>
7.0468153954

> <CNN_VS>
4.9443063736

> <CNNaffinity_variance>
0.0466292948

$$$$



 39 44  0  0  0  0  0  0  0  0999 V2000
   -7.1341   -0.9080  -23.0459 N   0  0  0  0  0  0  0  0  0  0  0  0
   -7.5735    0.5078  -23.2745 C   0  0  0  0  0  0  0  0  0  0  0  0
   -9.0350    0.8370  -23.3481 C   0  0  0  0  0  0  0  0  0  0  0  0
  -10.4534    1.3154  -23.4444 C   0  0  0  0  0  0  0  0  0  0  0  0
  -11.5874    0.8819  -23.3934 O   0  0  0  0  0  0  0  0  0  0  0  0
  -10.4282    2.7971  -23.6764 N   0  0  0  0  0  0  0  0  0  0  0  0
   -8.9941    3.2345  -23.7235 C   0  0  0  0  0  0  0  0  0  0  0  0
   -8.1332    2.0231  -23.5205 C   0  0  0  0  0  0  0  0  0  0  0  0
   -6.6335    2.0016  -23.4947 C   0  0  0  0  0  0  0  0  0  0  0  0
  -10.0573   -0.2498  -23.1930 C   0  0  0  0  0  0  0  0  0  0  0  0
  -11.5189    0.0793  -23.2665 C   0  0  0  0  0  0  0  0  0  0  0  0
  -12.5410   -1.0074  -23.1114 C   0  0  0  0  0  0  0  0  0  0  0  0
  -14.0027   -0.6783  -23.1850 Cl  0  0  0  0  0  0  0  0  0  0  0  0
  -12.1017   -2.4232  -22.8828 C   0  0  0  0  0  0  0  0  0  0  0  0
  -10.6401   -2.7524  -22.8092 C   0  0  0  0  0  0  0  0  0  0  0  0
   -9.6179   -1.6656  -22.9643 C   0  0  0  0  0  0  0  0  0  0  0  0
   -8.1563   -1.9948  -22.8908 C   0  0  0  0  0  0  0  0  0  0  0  0
   -7.7169   -3.4106  -22.6621 O   0  0  0  0  0  0  0  0  0  0  0  0
  -11.6266    3.6854  -23.8337 C   0  0  0  0  0  0  0  0  0  0  0  0
  -12.5345    3.9339  -22.6658 C   0  0  0  0  0  0  0  0  0  0  0  0
  -13.7328    4.8222  -22.8230 N   0  0  0  0  0  0  0  0  0  0  0  0
  -14.0233    5.4621  -24.1483 C   0  0  0  0  0  0  0  0  0  0  0  0
  -13.1154    5.2136  -25.3162 C   0  0  0  0  0  0  0  0  0  0  0  0
  -13.4060    5.8534  -26.6415 C   0  0  0  0  0  0  0  0  0  0  0  0
  -12.4980    5.6049  -27.8093 C   0  0  0  0  0  0  0  0  0  0  0  0
  -11.2996    4.7166  -27.6520 C   0  0  0  0  0  0  0  0  0  0  0  0
  -11.0092    4.0767  -26.3268 C   0  0  0  0  0  0  0  0  0  0  0  0
  -11.9170    4.3252  -25.1589 C   0  0  0  0  0  0  0  0  0  0  0  0
   -5.6724   -1.2371  -22.9723 C   0  0  0  0  0  0  0  0  0  0  0  0
   -4.6533   -0.1371  -23.0075 C   0  0  0  0  0  0  0  0  0  0  0  0
   -5.4159   -1.3274  -20.3615 C   0  0  0  0  0  0  0  0  0  0  0  0
   -4.6064   -0.0656  -20.4109 C   0  0  0  0  0  0  0  0  0  0  0  0
   -4.1782    0.6011  -19.1371 C   0  0  0  0  0  0  0  0  0  0  0  0
   -3.3687    1.8629  -19.1865 O   0  0  0  0  0  0  0  0  0  0  0  0
   -2.9874    2.4581  -20.5096 C   0  0  0  0  0  0  0  0  0  0  0  0
   -3.4156    1.7914  -21.7832 C   0  0  0  0  0  0  0  0  0  0  0  0
   -3.0343    2.3866  -23.1061 C   0  0  0  0  0  0  0  0  0  0  0  0
   -4.2251    0.5296  -21.7338 N   0  0  0  0  0  0  0  0  0  0  0  0
   -3.9658    0.9343  -22.6335 H   0  0  0  0  0  0  0  0  0  0  0  0
 32 31  1  0  0  0
 32 33  1  0  0  0
 33 34  1  0  0  0
 34 35  1  0  0  0
 35 36  1  0  0  0
 36 37  1  0  0  0
 36 38  1  0  0  0
 38 30  1  0  0  0
 30 29  1  0  0  0
 29  1  1  0  0  0
  1  2  1  0  0  0
  3  2  1  0  0  0
  3  4  1  0  0  0
  4  5  2  0  0  0
  4  6  1  0  0  0
  6 19  1  0  0  0
 19 20  2  0  0  0
 20 21  1  0  0  0
 21 22  2  0  0  0
 22 23  1  0  0  0
 23 24  2  0  0  0
 24 25  1  0  0  0
 25 26  2  0  0  0
 26 27  1  0  0  0
 27 28  2  0  0  0
  6  7  1  0  0  0
  7  8  1  0  0  0
  8  9  1  0  0  0
  3 10  1  0  0  0
 10 11  2  0  0  0
 11 12  1  0  0  0
 12 13  1  0  0  0
 12 14  2  0  0  0
 14 15  1  0  0  0
 15 16  2  0  0  0
 16 17  1  0  0  0
 17 18  2  0  0  0
 38 32  1  0  0  0
 17  1  1  0  0  0
  8  3  1  0  0  0
 16 10  1  0  0  0
 28 19  1  0  0  0
 28 23  1  0  0  0
 38 39  1  0  0  0
M  CHG 1  38   1
M  END
> <minimizedAffinity>
-8.85973

> <CNNscore>
0.6202986240

> <CNNaffinity>
6.7555198669

> <CNN_VS>
4.1904397011

> <CNNaffinity_variance>
0.1027027965

$$$$



 39 44  0  0  0  0  0  0  0  0999 V2000
   -6.8620   -0.7547  -23.4188 N   0  0  0  0  0  0  0  0  0  0  0  0
   -7.0948    0.5788  -24.0650 C   0  0  0  0  0  0  0  0  0  0  0  0
   -8.4940    1.0797  -24.2683 C   0  0  0  0  0  0  0  0  0  0  0  0
   -9.8291    1.7087  -24.5361 C   0  0  0  0  0  0  0  0  0  0  0  0
  -11.0129    1.4786  -24.3877 O   0  0  0  0  0  0  0  0  0  0  0  0
   -9.5928    3.0361  -25.1935 N   0  0  0  0  0  0  0  0  0  0  0  0
   -8.1115    3.2276  -25.3319 C   0  0  0  0  0  0  0  0  0  0  0  0
   -7.4324    2.0185  -24.7601 C   0  0  0  0  0  0  0  0  0  0  0  0
   -5.9517    1.7885  -24.6921 C   0  0  0  0  0  0  0  0  0  0  0  0
   -9.6604    0.2471  -23.8253 C   0  0  0  0  0  0  0  0  0  0  0  0
  -11.0596    0.7481  -24.0285 C   0  0  0  0  0  0  0  0  0  0  0  0
  -12.2260   -0.0845  -23.5855 C   0  0  0  0  0  0  0  0  0  0  0  0
  -13.6253    0.4164  -23.7887 Cl  0  0  0  0  0  0  0  0  0  0  0  0
  -11.9932   -1.4180  -22.9393 C   0  0  0  0  0  0  0  0  0  0  0  0
  -10.5941   -1.9189  -22.7361 C   0  0  0  0  0  0  0  0  0  0  0  0
   -9.4277   -1.0864  -23.1791 C   0  0  0  0  0  0  0  0  0  0  0  0
   -8.0284   -1.5873  -22.9759 C   0  0  0  0  0  0  0  0  0  0  0  0
   -7.7956   -2.9208  -22.3296 O   0  0  0  0  0  0  0  0  0  0  0  0
  -10.6518    4.0023  -25.6349 C   0  0  0  0  0  0  0  0  0  0  0  0
  -10.7051    4.4555  -27.0638 C   0  0  0  0  0  0  0  0  0  0  0  0
  -11.7641    5.4217  -27.5052 N   0  0  0  0  0  0  0  0  0  0  0  0
  -12.7698    5.9348  -26.5177 C   0  0  0  0  0  0  0  0  0  0  0  0
  -12.7165    5.4817  -25.0887 C   0  0  0  0  0  0  0  0  0  0  0  0
  -13.7223    5.9949  -24.1012 C   0  0  0  0  0  0  0  0  0  0  0  0
  -13.6689    5.5417  -22.6722 C   0  0  0  0  0  0  0  0  0  0  0  0
  -12.6099    4.5755  -22.2308 C   0  0  0  0  0  0  0  0  0  0  0  0
  -11.6042    4.0623  -23.2184 C   0  0  0  0  0  0  0  0  0  0  0  0
  -11.6575    4.5155  -24.6473 C   0  0  0  0  0  0  0  0  0  0  0  0
   -5.4627   -1.2556  -23.2156 C   0  0  0  0  0  0  0  0  0  0  0  0
   -4.5848   -0.6268  -22.1746 C   0  0  0  0  0  0  0  0  0  0  0  0
   -4.4501    1.7712  -20.3770 C   0  0  0  0  0  0  0  0  0  0  0  0
   -4.8650    0.4406  -19.8226 C   0  0  0  0  0  0  0  0  0  0  0  0
   -5.2125    0.3090  -18.3693 C   0  0  0  0  0  0  0  0  0  0  0  0
   -5.6274   -1.0216  -17.8149 O   0  0  0  0  0  0  0  0  0  0  0  0
   -5.6947   -2.2206  -18.7137 C   0  0  0  0  0  0  0  0  0  0  0  0
   -5.3472   -2.0890  -20.1669 C   0  0  0  0  0  0  0  0  0  0  0  0
   -5.4146   -3.2880  -21.0657 C   0  0  0  0  0  0  0  0  0  0  0  0
   -4.9323   -0.7584  -20.7214 N   0  0  0  0  0  0  0  0  0  0  0  0
   -4.9781   -1.5737  -21.3326 H   0  0  0  0  0  0  0  0  0  0  0  0
 32 31  1  0  0  0
 32 33  1  0  0  0
 33 34  1  0  0  0
 34 35  1  0  0  0
 35 36  1  0  0  0
 36 37  1  0  0  0
 36 38  1  0  0  0
 38 30  1  0  0  0
 30 29  1  0  0  0
 29  1  1  0  0  0
  1  2  1  0  0  0
  3  2  1  0  0  0
  3  4  1  0  0  0
  4  5  2  0  0  0
  4  6  1  0  0  0
  6 19  1  0  0  0
 19 20  2  0  0  0
 20 21  1  0  0  0
 21 22  2  0  0  0
 22 23  1  0  0  0
 23 24  2  0  0  0
 24 25  1  0  0  0
 25 26  2  0  0  0
 26 27  1  0  0  0
 27 28  2  0  0  0
  6  7  1  0  0  0
  7  8  1  0  0  0
  8  9  1  0  0  0
  3 10  1  0  0  0
 10 11  2  0  0  0
 11 12  1  0  0  0
 12 13  1  0  0  0
 12 14  2  0  0  0
 14 15  1  0  0  0
 15 16  2  0  0  0
 16 17  1  0  0  0
 17 18  2  0  0  0
 38 32  1  0  0  0
 17  1  1  0  0  0
  8  3  1  0  0  0
 16 10  1  0  0  0
 28 19  1  0  0  0
 28 23  1  0  0  0
 38 39  1  0  0  0
M  CHG 1  38   1
M  END
> <minimizedAffinity>
-8.78908

> <CNNscore>
0.3381676078

> <CNNaffinity>
6.2914743423

> <CNN_VS>
2.1275727749

> <CNNaffinity_variance>
0.2215628922

$$$$



 39 44  0  0  0  0  0  0  0  0999 V2000
   -6.6169   -0.6694  -23.0445 N   0  0  0  0  0  0  0  0  0  0  0  0
   -6.8912    0.6295  -23.7429 C   0  0  0  0  0  0  0  0  0  0  0  0
   -8.3006    1.0167  -24.0800 C   0  0  0  0  0  0  0  0  0  0  0  0
   -9.6503    1.5353  -24.4792 C   0  0  0  0  0  0  0  0  0  0  0  0
  -10.8219    1.2173  -24.4285 O   0  0  0  0  0  0  0  0  0  0  0  0
   -9.4572    2.8641  -25.1478 N   0  0  0  0  0  0  0  0  0  0  0  0
   -7.9881    3.1669  -25.1617 C   0  0  0  0  0  0  0  0  0  0  0  0
   -7.2733    2.0251  -24.5018 C   0  0  0  0  0  0  0  0  0  0  0  0
   -5.7914    1.9117  -24.2993 C   0  0  0  0  0  0  0  0  0  0  0  0
   -9.4357    0.1051  -23.7188 C   0  0  0  0  0  0  0  0  0  0  0  0
  -10.8451    0.4924  -24.0559 C   0  0  0  0  0  0  0  0  0  0  0  0
  -11.9802   -0.4192  -23.6946 C   0  0  0  0  0  0  0  0  0  0  0  0
  -13.3896   -0.0320  -24.0317 Cl  0  0  0  0  0  0  0  0  0  0  0  0
  -11.7059   -1.7181  -22.9962 C   0  0  0  0  0  0  0  0  0  0  0  0
  -10.2965   -2.1053  -22.6591 C   0  0  0  0  0  0  0  0  0  0  0  0
   -9.1615   -1.1937  -23.0204 C   0  0  0  0  0  0  0  0  0  0  0  0
   -7.7520   -1.5810  -22.6833 C   0  0  0  0  0  0  0  0  0  0  0  0
   -7.4777   -2.8799  -21.9849 O   0  0  0  0  0  0  0  0  0  0  0  0
  -10.5426    3.7370  -25.7045 C   0  0  0  0  0  0  0  0  0  0  0  0
  -10.6014    4.0131  -27.1778 C   0  0  0  0  0  0  0  0  0  0  0  0
  -11.6868    4.8859  -27.7346 N   0  0  0  0  0  0  0  0  0  0  0  0
  -12.7135    5.4826  -26.8181 C   0  0  0  0  0  0  0  0  0  0  0  0
  -12.6547    5.2065  -25.3449 C   0  0  0  0  0  0  0  0  0  0  0  0
  -13.6814    5.8033  -24.4284 C   0  0  0  0  0  0  0  0  0  0  0  0
  -13.6226    5.5272  -22.9553 C   0  0  0  0  0  0  0  0  0  0  0  0
  -12.5371    4.6543  -22.3985 C   0  0  0  0  0  0  0  0  0  0  0  0
  -11.5105    4.0576  -23.3149 C   0  0  0  0  0  0  0  0  0  0  0  0
  -11.5693    4.3337  -24.7881 C   0  0  0  0  0  0  0  0  0  0  0  0
   -5.2075   -1.0567  -22.7074 C   0  0  0  0  0  0  0  0  0  0  0  0
   -4.0987   -0.0577  -22.8585 C   0  0  0  0  0  0  0  0  0  0  0  0
   -2.3842    2.3662  -23.2879 C   0  0  0  0  0  0  0  0  0  0  0  0
   -2.8249    1.9951  -21.9030 C   0  0  0  0  0  0  0  0  0  0  0  0
   -2.4083    2.8360  -20.7328 C   0  0  0  0  0  0  0  0  0  0  0  0
   -2.8491    2.4649  -19.3478 O   0  0  0  0  0  0  0  0  0  0  0  0
   -3.7064    1.2528  -19.1332 C   0  0  0  0  0  0  0  0  0  0  0  0
   -4.1229    0.4120  -20.3034 C   0  0  0  0  0  0  0  0  0  0  0  0
   -4.9802   -0.8000  -20.0887 C   0  0  0  0  0  0  0  0  0  0  0  0
   -3.6822    0.7831  -21.6883 N   0  0  0  0  0  0  0  0  0  0  0  0
   -4.2652   -0.0411  -21.5423 H   0  0  0  0  0  0  0  0  0  0  0  0
 32 31  1  0  0  0
 32 33  1  0  0  0
 33 34  1  0  0  0
 34 35  1  0  0  0
 35 36  1  0  0  0
 36 37  1  0  0  0
 36 38  1  0  0  0
 38 30  1  0  0  0
 30 29  1  0  0  0
 29  1  1  0  0  0
  1  2  1  0  0  0
  3  2  1  0  0  0
  3  4  1  0  0  0
  4  5  2  0  0  0
  4  6  1  0  0  0
  6 19  1  0  0  0
 19 20  2  0  0  0
 20 21  1  0  0  0
 21 22  2  0  0  0
 22 23  1  0  0  0
 23 24  2  0  0  0
 24 25  1  0  0  0
 25 26  2  0  0  0
 26 27  1  0  0  0
 27 28  2  0  0  0
  6  7  1  0  0  0
  7  8  1  0  0  0
  8  9  1  0  0  0
  3 10  1  0  0  0
 10 11  2  0  0  0
 11 12  1  0  0  0
 12 13  1  0  0  0
 12 14  2  0  0  0
 14 15  1  0  0  0
 15 16  2  0  0  0
 16 17  1  0  0  0
 17 18  2  0  0  0
 38 32  1  0  0  0
 17  1  1  0  0  0
  8  3  1  0  0  0
 16 10  1  0  0  0
 28 19  1  0  0  0
 28 23  1  0  0  0
 38 39  1  0  0  0
M  CHG 1  38   1
M  END
> <minimizedAffinity>
-8.34934

> <CNNscore>
0.2288975418

> <CNNaffinity>
6.1477622986

> <CNN_VS>
1.4072077274

> <CNNaffinity_variance>
0.1988914311

$$$$



 39 44  0  0  0  0  0  0  0  0999 V2000
   -9.9049    3.4833  -24.0704 N   0  0  0  0  0  0  0  0  0  0  0  0
   -8.7284    2.5528  -24.0557 C   0  0  0  0  0  0  0  0  0  0  0  0
   -8.9364    1.0844  -23.8312 C   0  0  0  0  0  0  0  0  0  0  0  0
   -8.9887   -0.3997  -23.6198 C   0  0  0  0  0  0  0  0  0  0  0  0
   -9.7981   -1.2833  -23.4181 O   0  0  0  0  0  0  0  0  0  0  0  0
   -7.5858   -0.9268  -23.6832 N   0  0  0  0  0  0  0  0  0  0  0  0
   -6.6664    0.2316  -23.9338 C   0  0  0  0  0  0  0  0  0  0  0  0
   -7.5011    1.4746  -24.0253 C   0  0  0  0  0  0  0  0  0  0  0  0
   -6.9902    2.8638  -24.2682 C   0  0  0  0  0  0  0  0  0  0  0  0
  -10.3209    0.5464  -23.6216 C   0  0  0  0  0  0  0  0  0  0  0  0
  -10.5289   -0.9221  -23.3971 C   0  0  0  0  0  0  0  0  0  0  0  0
  -11.9133   -1.4600  -23.1875 C   0  0  0  0  0  0  0  0  0  0  0  0
  -12.1214   -2.9285  -22.9630 Cl  0  0  0  0  0  0  0  0  0  0  0  0
  -13.0897   -0.5295  -23.2022 C   0  0  0  0  0  0  0  0  0  0  0  0
  -12.8817    0.9389  -23.4267 C   0  0  0  0  0  0  0  0  0  0  0  0
  -11.4973    1.4769  -23.6363 C   0  0  0  0  0  0  0  0  0  0  0  0
  -11.2893    2.9454  -23.8608 C   0  0  0  0  0  0  0  0  0  0  0  0
  -12.4657    3.8759  -23.8755 O   0  0  0  0  0  0  0  0  0  0  0  0
   -7.1745   -2.3604  -23.5239 C   0  0  0  0  0  0  0  0  0  0  0  0
   -6.6034   -2.8366  -22.2212 C   0  0  0  0  0  0  0  0  0  0  0  0
   -6.1921   -4.2703  -22.0619 N   0  0  0  0  0  0  0  0  0  0  0  0
   -6.3519   -5.2278  -23.2054 C   0  0  0  0  0  0  0  0  0  0  0  0
   -6.9230   -4.7516  -24.5082 C   0  0  0  0  0  0  0  0  0  0  0  0
   -7.0828   -5.7092  -25.6517 C   0  0  0  0  0  0  0  0  0  0  0  0
   -7.6538   -5.2330  -26.9544 C   0  0  0  0  0  0  0  0  0  0  0  0
   -8.0651   -3.7993  -27.1137 C   0  0  0  0  0  0  0  0  0  0  0  0
   -7.9054   -2.8418  -25.9702 C   0  0  0  0  0  0  0  0  0  0  0  0
   -7.3343   -3.3180  -24.6674 C   0  0  0  0  0  0  0  0  0  0  0  0
   -9.6968    4.9518  -24.2949 C   0  0  0  0  0  0  0  0  0  0  0  0
  -10.8386    5.8095  -24.7539 C   0  0  0  0  0  0  0  0  0  0  0  0
   -8.8959    4.9859  -26.8864 C   0  0  0  0  0  0  0  0  0  0  0  0
  -10.2991    5.3659  -27.2563 C   0  0  0  0  0  0  0  0  0  0  0  0
  -10.7308    5.3341  -28.6925 C   0  0  0  0  0  0  0  0  0  0  0  0
  -12.1340    5.7141  -29.0624 O   0  0  0  0  0  0  0  0  0  0  0  0
  -13.1053    6.1259  -27.9960 C   0  0  0  0  0  0  0  0  0  0  0  0
  -12.6735    6.1577  -26.5599 C   0  0  0  0  0  0  0  0  0  0  0  0
  -13.6448    6.5695  -25.4937 C   0  0  0  0  0  0  0  0  0  0  0  0
  -11.2704    5.7777  -26.1900 N   0  0  0  0  0  0  0  0  0  0  0  0
  -11.9309    6.0577  -25.4650 H   0  0  0  0  0  0  0  0  0  0  0  0
 32 31  1  0  0  0
 32 33  1  0  0  0
 33 34  1  0  0  0
 34 35  1  0  0  0
 35 36  1  0  0  0
 36 37  1  0  0  0
 36 38  1  0  0  0
 38 30  1  0  0  0
 30 29  1  0  0  0
 29  1  1  0  0  0
  1  2  1  0  0  0
  3  2  1  0  0  0
  3  4  1  0  0  0
  4  5  2  0  0  0
  4  6  1  0  0  0
  6 19  1  0  0  0
 19 20  2  0  0  0
 20 21  1  0  0  0
 21 22  2  0  0  0
 22 23  1  0  0  0
 23 24  2  0  0  0
 24 25  1  0  0  0
 25 26  2  0  0  0
 26 27  1  0  0  0
 27 28  2  0  0  0
  6  7  1  0  0  0
  7  8  1  0  0  0
  8  9  1  0  0  0
  3 10  1  0  0  0
 10 11  2  0  0  0
 11 12  1  0  0  0
 12 13  1  0  0  0
 12 14  2  0  0  0
 14 15  1  0  0  0
 15 16  2  0  0  0
 16 17  1  0  0  0
 17 18  2  0  0  0
 38 32  1  0  0  0
 17  1  1  0  0  0
  8  3  1  0  0  0
 16 10  1  0  0  0
 28 19  1  0  0  0
 28 23  1  0  0  0
 38 39  1  0  0  0
M  CHG 1  38   1
M  END
> <minimizedAffinity>
-7.36970

> <CNNscore>
0.2212326527

> <CNNaffinity>
6.2525033951

> <CNN_VS>
1.3832578659

> <CNNaffinity_variance>
0.2281582057

$$$$



 39 44  0  0  0  0  0  0  0  0999 V2000
   -6.5769   -0.6320  -23.2685 N   0  0  0  0  0  0  0  0  0  0  0  0
   -6.8771    0.6706  -23.9489 C   0  0  0  0  0  0  0  0  0  0  0  0
   -8.2985    1.0626  -24.2247 C   0  0  0  0  0  0  0  0  0  0  0  0
   -9.6625    1.5861  -24.5644 C   0  0  0  0  0  0  0  0  0  0  0  0
  -10.8317    1.2706  -24.4658 O   0  0  0  0  0  0  0  0  0  0  0  0
   -9.4944    2.9175  -25.2346 N   0  0  0  0  0  0  0  0  0  0  0  0
   -8.0265    3.2169  -25.3090 C   0  0  0  0  0  0  0  0  0  0  0  0
   -7.2874    2.0705  -24.6849 C   0  0  0  0  0  0  0  0  0  0  0  0
   -5.7985    1.9528  -24.5454 C   0  0  0  0  0  0  0  0  0  0  0  0
   -9.4197    0.1520  -23.8200 C   0  0  0  0  0  0  0  0  0  0  0  0
  -10.8410    0.5441  -24.0957 C   0  0  0  0  0  0  0  0  0  0  0  0
  -11.9621   -0.3665  -23.6910 C   0  0  0  0  0  0  0  0  0  0  0  0
  -13.3836    0.0255  -23.9668 Cl  0  0  0  0  0  0  0  0  0  0  0  0
  -11.6620   -1.6692  -23.0106 C   0  0  0  0  0  0  0  0  0  0  0  0
  -10.2406   -2.0612  -22.7348 C   0  0  0  0  0  0  0  0  0  0  0  0
   -9.1195   -1.1506  -23.1395 C   0  0  0  0  0  0  0  0  0  0  0  0
   -7.6981   -1.5426  -22.8638 C   0  0  0  0  0  0  0  0  0  0  0  0
   -7.3979   -2.8453  -22.1833 O   0  0  0  0  0  0  0  0  0  0  0  0
  -10.6001    3.7954  -25.7413 C   0  0  0  0  0  0  0  0  0  0  0  0
  -10.6996    4.1066  -27.2053 C   0  0  0  0  0  0  0  0  0  0  0  0
  -11.8053    4.9844  -27.7120 N   0  0  0  0  0  0  0  0  0  0  0  0
  -12.8115    5.5511  -26.7547 C   0  0  0  0  0  0  0  0  0  0  0  0
  -12.7121    5.2399  -25.2907 C   0  0  0  0  0  0  0  0  0  0  0  0
  -13.7184    5.8065  -24.3334 C   0  0  0  0  0  0  0  0  0  0  0  0
  -13.6188    5.4953  -22.8694 C   0  0  0  0  0  0  0  0  0  0  0  0
  -12.5131    4.6174  -22.3627 C   0  0  0  0  0  0  0  0  0  0  0  0
  -11.5069    4.0508  -23.3200 C   0  0  0  0  0  0  0  0  0  0  0  0
  -11.6063    4.3620  -24.7840 C   0  0  0  0  0  0  0  0  0  0  0  0
   -5.1555   -1.0241  -22.9927 C   0  0  0  0  0  0  0  0  0  0  0  0
   -4.0717    0.0124  -23.0264 C   0  0  0  0  0  0  0  0  0  0  0  0
   -4.9938   -0.9706  -20.3463 C   0  0  0  0  0  0  0  0  0  0  0  0
   -4.1989    0.2974  -20.4472 C   0  0  0  0  0  0  0  0  0  0  0  0
   -3.8649    1.0739  -19.2080 C   0  0  0  0  0  0  0  0  0  0  0  0
   -3.0699    2.3419  -19.3089 O   0  0  0  0  0  0  0  0  0  0  0  0
   -2.6089    2.8334  -20.6490 C   0  0  0  0  0  0  0  0  0  0  0  0
   -2.9428    2.0569  -21.8882 C   0  0  0  0  0  0  0  0  0  0  0  0
   -2.4817    2.5484  -23.2282 C   0  0  0  0  0  0  0  0  0  0  0  0
   -3.7378    0.7889  -21.7872 N   0  0  0  0  0  0  0  0  0  0  0  0
   -3.4242    1.1231  -22.6985 H   0  0  0  0  0  0  0  0  0  0  0  0
 32 31  1  0  0  0
 32 33  1  0  0  0
 33 34  1  0  0  0
 34 35  1  0  0  0
 35 36  1  0  0  0
 36 37  1  0  0  0
 36 38  1  0  0  0
 38 30  1  0  0  0
 30 29  1  0  0  0
 29  1  1  0  0  0
  1  2  1  0  0  0
  3  2  1  0  0  0
  3  4  1  0  0  0
  4  5  2  0  0  0
  4  6  1  0  0  0
  6 19  1  0  0  0
 19 20  2  0  0  0
 20 21  1  0  0  0
 21 22  2  0  0  0
 22 23  1  0  0  0
 23 24  2  0  0  0
 24 25  1  0  0  0
 25 26  2  0  0  0
 26 27  1  0  0  0
 27 28  2  0  0  0
  6  7  1  0  0  0
  7  8  1  0  0  0
  8  9  1  0  0  0
  3 10  1  0  0  0
 10 11  2  0  0  0
 11 12  1  0  0  0
 12 13  1  0  0  0
 12 14  2  0  0  0
 14 15  1  0  0  0
 15 16  2  0  0  0
 16 17  1  0  0  0
 17 18  2  0  0  0
 38 32  1  0  0  0
 17  1  1  0  0  0
  8  3  1  0  0  0
 16 10  1  0  0  0
 28 19  1  0  0  0
 28 23  1  0  0  0
 38 39  1  0  0  0
M  CHG 1  38   1
M  END
> <minimizedAffinity>
-8.31377

> <CNNscore>
0.1895441115

> <CNNaffinity>
6.0809602737

> <CNN_VS>
1.1526101828

> <CNNaffinity_variance>
0.2125816047

$$$$



 39 44  0  0  0  0  0  0  0  0999 V2000
   -6.6101   -2.1766  -23.9917 N   0  0  0  0  0  0  0  0  0  0  0  0
   -5.3611   -1.3575  -24.1298 C   0  0  0  0  0  0  0  0  0  0  0  0
   -4.7993   -0.6399  -22.9385 C   0  0  0  0  0  0  0  0  0  0  0  0
   -4.1237    0.1295  -21.8423 C   0  0  0  0  0  0  0  0  0  0  0  0
   -4.2527    0.3707  -20.6584 O   0  0  0  0  0  0  0  0  0  0  0  0
   -2.9134    0.7985  -22.4234 N   0  0  0  0  0  0  0  0  0  0  0  0
   -2.8410    0.4427  -23.8788 C   0  0  0  0  0  0  0  0  0  0  0  0
   -4.0065   -0.4463  -24.1971 C   0  0  0  0  0  0  0  0  0  0  0  0
   -4.3236   -1.0378  -25.5386 C   0  0  0  0  0  0  0  0  0  0  0  0
   -5.4865   -0.7412  -21.6090 C   0  0  0  0  0  0  0  0  0  0  0  0
   -4.9247   -0.0235  -20.4177 C   0  0  0  0  0  0  0  0  0  0  0  0
   -5.6119   -0.1249  -19.0883 C   0  0  0  0  0  0  0  0  0  0  0  0
   -5.0501    0.5928  -17.8969 Cl  0  0  0  0  0  0  0  0  0  0  0  0
   -6.8609   -0.9440  -18.9501 C   0  0  0  0  0  0  0  0  0  0  0  0
   -7.4227   -1.6617  -20.1414 C   0  0  0  0  0  0  0  0  0  0  0  0
   -6.7355   -1.5603  -21.4709 C   0  0  0  0  0  0  0  0  0  0  0  0
   -7.2973   -2.2780  -22.6623 C   0  0  0  0  0  0  0  0  0  0  0  0
   -8.5463   -3.0971  -22.5241 O   0  0  0  0  0  0  0  0  0  0  0  0
   -1.9455    1.6703  -21.6796 C   0  0  0  0  0  0  0  0  0  0  0  0
   -1.9806    1.7212  -20.1809 C   0  0  0  0  0  0  0  0  0  0  0  0
   -1.0127    2.5929  -19.4372 N   0  0  0  0  0  0  0  0  0  0  0  0
   -0.0097    3.4139  -20.1922 C   0  0  0  0  0  0  0  0  0  0  0  0
    0.0254    3.3630  -21.6909 C   0  0  0  0  0  0  0  0  0  0  0  0
    1.0284    4.1840  -22.4459 C   0  0  0  0  0  0  0  0  0  0  0  0
    1.0635    4.1331  -23.9447 C   0  0  0  0  0  0  0  0  0  0  0  0
    0.0956    3.2613  -24.6884 C   0  0  0  0  0  0  0  0  0  0  0  0
   -0.9074    2.4403  -23.9334 C   0  0  0  0  0  0  0  0  0  0  0  0
   -0.9425    2.4912  -22.4347 C   0  0  0  0  0  0  0  0  0  0  0  0
   -7.1719   -2.8943  -25.1831 C   0  0  0  0  0  0  0  0  0  0  0  0
   -7.1165   -4.3917  -25.2515 C   0  0  0  0  0  0  0  0  0  0  0  0
  -10.0186   -4.8963  -25.8192 C   0  0  0  0  0  0  0  0  0  0  0  0
   -8.9734   -5.3529  -26.7934 C   0  0  0  0  0  0  0  0  0  0  0  0
   -9.3793   -6.0618  -28.0515 C   0  0  0  0  0  0  0  0  0  0  0  0
   -8.3341   -6.5184  -29.0256 O   0  0  0  0  0  0  0  0  0  0  0  0
   -6.8829   -6.2661  -28.7417 C   0  0  0  0  0  0  0  0  0  0  0  0
   -6.4771   -5.5572  -27.4837 C   0  0  0  0  0  0  0  0  0  0  0  0
   -5.0260   -5.3049  -27.1998 C   0  0  0  0  0  0  0  0  0  0  0  0
   -7.5223   -5.1006  -26.5095 N   0  0  0  0  0  0  0  0  0  0  0  0
   -6.5356   -4.9290  -26.3164 H   0  0  0  0  0  0  0  0  0  0  0  0
 32 31  1  0  0  0
 32 33  1  0  0  0
 33 34  1  0  0  0
 34 35  1  0  0  0
 35 36  1  0  0  0
 36 37  1  0  0  0
 36 38  1  0  0  0
 38 30  1  0  0  0
 30 29  1  0  0  0
 29  1  1  0  0  0
  1  2  1  0  0  0
  3  2  1  0  0  0
  3  4  1  0  0  0
  4  5  2  0  0  0
  4  6  1  0  0  0
  6 19  1  0  0  0
 19 20  2  0  0  0
 20 21  1  0  0  0
 21 22  2  0  0  0
 22 23  1  0  0  0
 23 24  2  0  0  0
 24 25  1  0  0  0
 25 26  2  0  0  0
 26 27  1  0  0  0
 27 28  2  0  0  0
  6  7  1  0  0  0
  7  8  1  0  0  0
  8  9  1  0  0  0
  3 10  1  0  0  0
 10 11  2  0  0  0
 11 12  1  0  0  0
 12 13  1  0  0  0
 12 14  2  0  0  0
 14 15  1  0  0  0
 15 16  2  0  0  0
 16 17  1  0  0  0
 17 18  2  0  0  0
 38 32  1  0  0  0
 17  1  1  0  0  0
  8  3  1  0  0  0
 16 10  1  0  0  0
 28 19  1  0  0  0
 28 23  1  0  0  0
 38 39  1  0  0  0
M  CHG 1  38   1
M  END
> <minimizedAffinity>
-7.85447

> <CNNscore>
0.1679870039

> <CNNaffinity>
5.6865377426

> <CNN_VS>
0.9552644491

> <CNNaffinity_variance>
0.1243626624

$$$$
