


 35 40  0  0  0  0  0  0  0  0999 V2000
    7.5757   -3.2817   23.5551 C   0  0  0  0  0  0  0  0  0  0  0  0
    7.7630   -2.0283   22.7526 C   0  0  0  0  0  0  0  0  0  0  0  0
    6.6433   -1.8126   21.7780 C   0  0  0  0  0  0  0  0  0  0  0  0
    6.9195   -0.5432   21.0282 N   0  0  0  0  0  0  0  0  0  0  0  0
    8.2099    0.0257   21.5394 C   0  0  0  0  0  0  0  0  0  0  0  0
    8.8641    1.2904   21.0676 O   0  0  0  0  0  0  0  0  0  0  0  0
    8.7312   -0.8921   22.6051 C   0  0  0  0  0  0  0  0  0  0  0  0
    9.6039    0.3000   22.3463 C   0  0  0  0  0  0  0  0  0  0  0  0
   10.8710    0.4857   23.1274 N   0  0  0  0  0  0  0  0  0  0  0  0
   11.2653   -0.5208   24.1673 C   0  0  0  0  0  0  0  0  0  0  0  0
   12.5323   -0.3351   24.9484 O   0  0  0  0  0  0  0  0  0  0  0  0
   10.3925   -1.7130   24.4262 C   0  0  0  0  0  0  0  0  0  0  0  0
   10.7868   -2.7195   25.4661 C   0  0  0  0  0  0  0  0  0  0  0  0
    9.9141   -3.9117   25.7249 C   0  0  0  0  0  0  0  0  0  0  0  0
    8.6471   -4.0974   24.9438 C   0  0  0  0  0  0  0  0  0  0  0  0
    7.7743   -5.2896   25.2027 F   0  0  0  0  0  0  0  0  0  0  0  0
    8.2527   -3.0909   23.9039 C   0  0  0  0  0  0  0  0  0  0  0  0
    9.1255   -1.8987   23.6451 C   0  0  0  0  0  0  0  0  0  0  0  0
    6.0568    0.0528   19.9555 C   0  0  0  0  0  0  0  0  0  0  0  0
    6.3945   -0.1703   18.5112 C   0  0  0  0  0  0  0  0  0  0  0  0
    5.5319    0.4257   17.4386 N   0  0  0  0  0  0  0  0  0  0  0  0
    4.3315    1.2447   17.8103 C   0  0  0  0  0  0  0  0  0  0  0  0
    3.9937    1.4677   19.2547 C   0  0  0  0  0  0  0  0  0  0  0  0
    2.7932    2.2868   19.6263 C   0  0  0  0  0  0  0  0  0  0  0  0
    2.4556    2.5098   21.0707 C   0  0  0  0  0  0  0  0  0  0  0  0
    3.3183    1.9139   22.1433 C   0  0  0  0  0  0  0  0  0  0  0  0
    4.5187    1.0949   21.7716 C   0  0  0  0  0  0  0  0  0  0  0  0
    4.8564    0.8718   20.3273 C   0  0  0  0  0  0  0  0  0  0  0  0
   11.7437    1.6780   22.8685 C   0  0  0  0  0  0  0  0  0  0  0  0
   11.1497    3.0553   22.8635 C   0  0  0  0  0  0  0  0  0  0  0  0
   11.8141    4.3002   22.3547 C   0  0  0  0  0  0  0  0  0  0  0  0
   10.8621    5.4439   22.5430 C   0  0  0  0  0  0  0  0  0  0  0  0
    9.6092    4.9058   23.1683 N   0  0  0  0  0  0  0  0  0  0  0  0
    9.7870    3.4296   23.3663 N   0  0  0  0  0  0  0  0  0  0  0  0
    8.7790    2.4923   23.9624 C   0  0  0  0  0  0  0  0  0  0  0  0
  2  1  1  0  0  0
  2  3  1  0  0  0
  3  4  1  0  0  0
  4 19  1  0  0  0
 19 20  2  0  0  0
 20 21  1  0  0  0
 21 22  2  0  0  0
 22 23  1  0  0  0
 23 24  2  0  0  0
 24 25  1  0  0  0
 25 26  2  0  0  0
 26 27  1  0  0  0
 27 28  2  0  0  0
  4  5  1  0  0  0
  5  6  2  0  0  0
  5  7  1  0  0  0
  7  8  1  0  0  0
  8  9  1  0  0  0
  9 29  1  0  0  0
 29 30  1  0  0  0
 30 31  2  0  0  0
 31 32  1  0  0  0
 32 33  2  0  0  0
 33 34  1  0  0  0
 34 35  1  0  0  0
  9 10  1  0  0  0
 10 11  2  0  0  0
 10 12  1  0  0  0
 12 13  2  0  0  0
 13 14  1  0  0  0
 14 15  2  0  0  0
 15 16  1  0  0  0
 15 17  1  0  0  0
 17 18  2  0  0  0
  7  2  1  0  0  0
 34 30  1  0  0  0
 18 12  1  0  0  0
 28 19  1  0  0  0
 18  7  1  0  0  0
 28 23  1  0  0  0
M  END
> <minimizedAffinity>
-9.08476

> <CNNscore>
0.6674160361

> <CNNaffinity>
6.8858132362

> <CNN_VS>
4.5957021713

> <CNNaffinity_variance>
0.0658357963

$$$$



 35 40  0  0  0  0  0  0  0  0999 V2000
   11.0282    0.0359   22.5413 C   0  0  0  0  0  0  0  0  0  0  0  0
    9.6370   -0.4775   22.3150 C   0  0  0  0  0  0  0  0  0  0  0  0
    8.9222    0.2905   21.2430 C   0  0  0  0  0  0  0  0  0  0  0  0
    7.5491   -0.2938   21.0914 N   0  0  0  0  0  0  0  0  0  0  0  0
    7.4153   -1.4229   22.0698 C   0  0  0  0  0  0  0  0  0  0  0  0
    6.2037   -2.2868   22.2587 O   0  0  0  0  0  0  0  0  0  0  0  0
    8.7057   -1.5364   22.8260 C   0  0  0  0  0  0  0  0  0  0  0  0
    7.6693   -2.5412   23.2337 C   0  0  0  0  0  0  0  0  0  0  0  0
    7.9747   -3.5385   24.3117 N   0  0  0  0  0  0  0  0  0  0  0  0
    9.3166   -3.5312   24.9818 C   0  0  0  0  0  0  0  0  0  0  0  0
    9.6221   -4.5286   26.0598 O   0  0  0  0  0  0  0  0  0  0  0  0
   10.3531   -2.5264   24.5741 C   0  0  0  0  0  0  0  0  0  0  0  0
   11.6950   -2.5191   25.2443 C   0  0  0  0  0  0  0  0  0  0  0  0
   12.7315   -1.5144   24.8366 C   0  0  0  0  0  0  0  0  0  0  0  0
   12.4260   -0.5170   23.7587 C   0  0  0  0  0  0  0  0  0  0  0  0
   13.4625    0.4877   23.3509 F   0  0  0  0  0  0  0  0  0  0  0  0
   11.0841   -0.5243   23.0885 C   0  0  0  0  0  0  0  0  0  0  0  0
   10.0477   -1.5291   23.4962 C   0  0  0  0  0  0  0  0  0  0  0  0
    6.4948    0.1696   20.1303 C   0  0  0  0  0  0  0  0  0  0  0  0
    6.4026   -0.4444   18.7649 C   0  0  0  0  0  0  0  0  0  0  0  0
    5.3483    0.0190   17.8038 N   0  0  0  0  0  0  0  0  0  0  0  0
    4.3863    1.0965   18.2081 C   0  0  0  0  0  0  0  0  0  0  0  0
    4.4785    1.7106   19.5736 C   0  0  0  0  0  0  0  0  0  0  0  0
    3.5164    2.7881   19.9779 C   0  0  0  0  0  0  0  0  0  0  0  0
    3.6087    3.4021   21.3434 C   0  0  0  0  0  0  0  0  0  0  0  0
    4.6630    2.9387   22.3044 C   0  0  0  0  0  0  0  0  0  0  0  0
    5.6250    1.8612   21.9001 C   0  0  0  0  0  0  0  0  0  0  0  0
    5.5328    1.2471   20.5347 C   0  0  0  0  0  0  0  0  0  0  0  0
    6.9382   -4.5433   24.7194 C   0  0  0  0  0  0  0  0  0  0  0  0
    6.1480   -5.2723   23.6734 C   0  0  0  0  0  0  0  0  0  0  0  0
    6.6536   -5.7063   22.3295 C   0  0  0  0  0  0  0  0  0  0  0  0
    5.5316   -6.3975   21.6132 C   0  0  0  0  0  0  0  0  0  0  0  0
    4.3324   -6.3907   22.5144 N   0  0  0  0  0  0  0  0  0  0  0  0
    4.7134   -5.6953   23.7876 N   0  0  0  0  0  0  0  0  0  0  0  0
    3.8172   -5.4635   24.9678 C   0  0  0  0  0  0  0  0  0  0  0  0
  2  1  1  0  0  0
  2  3  1  0  0  0
  3  4  1  0  0  0
  4 19  1  0  0  0
 19 20  2  0  0  0
 20 21  1  0  0  0
 21 22  2  0  0  0
 22 23  1  0  0  0
 23 24  2  0  0  0
 24 25  1  0  0  0
 25 26  2  0  0  0
 26 27  1  0  0  0
 27 28  2  0  0  0
  4  5  1  0  0  0
  5  6  2  0  0  0
  5  7  1  0  0  0
  7  8  1  0  0  0
  8  9  1  0  0  0
  9 29  1  0  0  0
 29 30  1  0  0  0
 30 31  2  0  0  0
 31 32  1  0  0  0
 32 33  2  0  0  0
 33 34  1  0  0  0
 34 35  1  0  0  0
  9 10  1  0  0  0
 10 11  2  0  0  0
 10 12  1  0  0  0
 12 13  2  0  0  0
 13 14  1  0  0  0
 14 15  2  0  0  0
 15 16  1  0  0  0
 15 17  1  0  0  0
 17 18  2  0  0  0
  7  2  1  0  0  0
 34 30  1  0  0  0
 18 12  1  0  0  0
 28 19  1  0  0  0
 18  7  1  0  0  0
 28 23  1  0  0  0
M  END
> <minimizedAffinity>
-9.40191

> <CNNscore>
0.4287541211

> <CNNaffinity>
6.7388963699

> <CNN_VS>
2.8893296719

> <CNNaffinity_variance>
0.1393726915

$$$$



 35 40  0  0  0  0  0  0  0  0999 V2000
    9.7409   -0.9083   24.3854 C   0  0  0  0  0  0  0  0  0  0  0  0
    8.2727   -1.0870   24.6356 C   0  0  0  0  0  0  0  0  0  0  0  0
    7.9926   -2.2679   25.5172 C   0  0  0  0  0  0  0  0  0  0  0  0
    6.5077   -2.3624   25.7074 N   0  0  0  0  0  0  0  0  0  0  0  0
    5.8702   -1.2399   24.9434 C   0  0  0  0  0  0  0  0  0  0  0  0
    4.3999   -0.9556   24.8571 O   0  0  0  0  0  0  0  0  0  0  0  0
    6.9610   -0.4517   24.2810 C   0  0  0  0  0  0  0  0  0  0  0  0
    5.5811    0.0719   24.0132 C   0  0  0  0  0  0  0  0  0  0  0  0
    5.3932    1.2828   23.1481 N   0  0  0  0  0  0  0  0  0  0  0  0
    6.5852    1.9701   22.5507 C   0  0  0  0  0  0  0  0  0  0  0  0
    6.3973    3.1810   21.6856 O   0  0  0  0  0  0  0  0  0  0  0  0
    7.9651    1.4464   22.8185 C   0  0  0  0  0  0  0  0  0  0  0  0
    9.1571    2.1337   22.2212 C   0  0  0  0  0  0  0  0  0  0  0  0
   10.5370    1.6101   22.4890 C   0  0  0  0  0  0  0  0  0  0  0  0
   10.7249    0.3992   23.3541 C   0  0  0  0  0  0  0  0  0  0  0  0
   12.1048   -0.1244   23.6219 F   0  0  0  0  0  0  0  0  0  0  0  0
    9.5329   -0.2881   23.9514 C   0  0  0  0  0  0  0  0  0  0  0  0
    8.1530    0.2356   23.6836 C   0  0  0  0  0  0  0  0  0  0  0  0
    5.7869   -3.3975   26.5191 C   0  0  0  0  0  0  0  0  0  0  0  0
    5.3336   -4.6739   25.8748 C   0  0  0  0  0  0  0  0  0  0  0  0
    4.6128   -5.7090   26.6865 N   0  0  0  0  0  0  0  0  0  0  0  0
    4.3454   -5.4677   28.1426 C   0  0  0  0  0  0  0  0  0  0  0  0
    4.7987   -4.1913   28.7870 C   0  0  0  0  0  0  0  0  0  0  0  0
    4.5313   -3.9500   30.2432 C   0  0  0  0  0  0  0  0  0  0  0  0
    4.9847   -2.6736   30.8875 C   0  0  0  0  0  0  0  0  0  0  0  0
    5.7055   -1.6385   30.0757 C   0  0  0  0  0  0  0  0  0  0  0  0
    5.9729   -1.8798   28.6196 C   0  0  0  0  0  0  0  0  0  0  0  0
    5.5195   -3.1561   27.9753 C   0  0  0  0  0  0  0  0  0  0  0  0
    4.0133    1.8064   22.8803 C   0  0  0  0  0  0  0  0  0  0  0  0
    3.3002    2.6108   23.9265 C   0  0  0  0  0  0  0  0  0  0  0  0
    3.9478    3.3949   25.0291 C   0  0  0  0  0  0  0  0  0  0  0  0
    2.8623    4.0411   25.8378 C   0  0  0  0  0  0  0  0  0  0  0  0
    1.5437    3.6563   25.2349 N   0  0  0  0  0  0  0  0  0  0  0  0
    1.8144    2.7724   24.0536 N   0  0  0  0  0  0  0  0  0  0  0  0
    0.7808    2.1579   23.1570 C   0  0  0  0  0  0  0  0  0  0  0  0
  2  1  1  0  0  0
  2  3  1  0  0  0
  3  4  1  0  0  0
  4 19  1  0  0  0
 19 20  2  0  0  0
 20 21  1  0  0  0
 21 22  2  0  0  0
 22 23  1  0  0  0
 23 24  2  0  0  0
 24 25  1  0  0  0
 25 26  2  0  0  0
 26 27  1  0  0  0
 27 28  2  0  0  0
  4  5  1  0  0  0
  5  6  2  0  0  0
  5  7  1  0  0  0
  7  8  1  0  0  0
  8  9  1  0  0  0
  9 29  1  0  0  0
 29 30  1  0  0  0
 30 31  2  0  0  0
 31 32  1  0  0  0
 32 33  2  0  0  0
 33 34  1  0  0  0
 34 35  1  0  0  0
  9 10  1  0  0  0
 10 11  2  0  0  0
 10 12  1  0  0  0
 12 13  2  0  0  0
 13 14  1  0  0  0
 14 15  2  0  0  0
 15 16  1  0  0  0
 15 17  1  0  0  0
 17 18  2  0  0  0
  7  2  1  0  0  0
 34 30  1  0  0  0
 18 12  1  0  0  0
 28 19  1  0  0  0
 18  7  1  0  0  0
 28 23  1  0  0  0
M  END
> <minimizedAffinity>
-5.11753

> <CNNscore>
0.3485713005

> <CNNaffinity>
6.3085436821

> <CNN_VS>
2.1989772320

> <CNNaffinity_variance>
0.9980360866

$$$$



 35 40  0  0  0  0  0  0  0  0999 V2000
    6.8632   -1.5275   20.9742 C   0  0  0  0  0  0  0  0  0  0  0  0
    7.8698   -0.8773   21.8764 C   0  0  0  0  0  0  0  0  0  0  0  0
    8.8378   -1.8712   22.4468 C   0  0  0  0  0  0  0  0  0  0  0  0
    9.7975   -1.1296   23.3294 N   0  0  0  0  0  0  0  0  0  0  0  0
    9.4227    0.3226   23.3044 C   0  0  0  0  0  0  0  0  0  0  0  0
   10.1173    1.4253   24.0471 O   0  0  0  0  0  0  0  0  0  0  0  0
    8.2313    0.4785   22.4065 C   0  0  0  0  0  0  0  0  0  0  0  0
    8.7095    1.7638   23.0143 C   0  0  0  0  0  0  0  0  0  0  0  0
    8.0035    3.0497   22.7014 N   0  0  0  0  0  0  0  0  0  0  0  0
    6.8194    3.0505   21.7806 C   0  0  0  0  0  0  0  0  0  0  0  0
    6.1135    4.3364   21.4676 O   0  0  0  0  0  0  0  0  0  0  0  0
    6.3412    1.7652   21.1727 C   0  0  0  0  0  0  0  0  0  0  0  0
    5.1571    1.7659   20.2519 C   0  0  0  0  0  0  0  0  0  0  0  0
    4.6790    0.4807   19.6441 C   0  0  0  0  0  0  0  0  0  0  0  0
    5.3849   -0.8053   19.9570 C   0  0  0  0  0  0  0  0  0  0  0  0
    4.9067   -2.0905   19.3491 F   0  0  0  0  0  0  0  0  0  0  0  0
    6.5690   -0.8060   20.8778 C   0  0  0  0  0  0  0  0  0  0  0  0
    7.0472    0.4792   21.4856 C   0  0  0  0  0  0  0  0  0  0  0  0
   10.9327   -1.7340   24.1013 C   0  0  0  0  0  0  0  0  0  0  0  0
   12.3456   -1.5285   23.6417 C   0  0  0  0  0  0  0  0  0  0  0  0
   13.4809   -2.1329   24.4137 N   0  0  0  0  0  0  0  0  0  0  0  0
   13.2031   -2.9428   25.6453 C   0  0  0  0  0  0  0  0  0  0  0  0
   11.7901   -3.1483   26.1049 C   0  0  0  0  0  0  0  0  0  0  0  0
   11.5124   -3.9583   27.3366 C   0  0  0  0  0  0  0  0  0  0  0  0
   10.0993   -4.1637   27.7961 C   0  0  0  0  0  0  0  0  0  0  0  0
    8.9642   -3.5593   27.0242 C   0  0  0  0  0  0  0  0  0  0  0  0
    9.2420   -2.7494   25.7926 C   0  0  0  0  0  0  0  0  0  0  0  0
   10.6549   -2.5439   25.3329 C   0  0  0  0  0  0  0  0  0  0  0  0
    8.4817    4.3350   23.3092 C   0  0  0  0  0  0  0  0  0  0  0  0
    9.8083    4.9074   22.9062 C   0  0  0  0  0  0  0  0  0  0  0  0
   10.9453    4.1481   22.2891 C   0  0  0  0  0  0  0  0  0  0  0  0
   12.0706    5.1110   22.0510 C   0  0  0  0  0  0  0  0  0  0  0  0
   11.6290    6.4653   22.5210 N   0  0  0  0  0  0  0  0  0  0  0  0
   10.2309    6.3395   23.0495 N   0  0  0  0  0  0  0  0  0  0  0  0
    9.4010    7.4506   23.6210 C   0  0  0  0  0  0  0  0  0  0  0  0
  2  1  1  0  0  0
  2  3  1  0  0  0
  3  4  1  0  0  0
  4 19  1  0  0  0
 19 20  2  0  0  0
 20 21  1  0  0  0
 21 22  2  0  0  0
 22 23  1  0  0  0
 23 24  2  0  0  0
 24 25  1  0  0  0
 25 26  2  0  0  0
 26 27  1  0  0  0
 27 28  2  0  0  0
  4  5  1  0  0  0
  5  6  2  0  0  0
  5  7  1  0  0  0
  7  8  1  0  0  0
  8  9  1  0  0  0
  9 29  1  0  0  0
 29 30  1  0  0  0
 30 31  2  0  0  0
 31 32  1  0  0  0
 32 33  2  0  0  0
 33 34  1  0  0  0
 34 35  1  0  0  0
  9 10  1  0  0  0
 10 11  2  0  0  0
 10 12  1  0  0  0
 12 13  2  0  0  0
 13 14  1  0  0  0
 14 15  2  0  0  0
 15 16  1  0  0  0
 15 17  1  0  0  0
 17 18  2  0  0  0
  7  2  1  0  0  0
 34 30  1  0  0  0
 18 12  1  0  0  0
 28 19  1  0  0  0
 18  7  1  0  0  0
 28 23  1  0  0  0
M  END
> <minimizedAffinity>
-8.29530

> <CNNscore>
0.2834199369

> <CNNaffinity>
6.5238342285

> <CNN_VS>
1.8489847183

> <CNNaffinity_variance>
0.1307979971

$$$$



 35 40  0  0  0  0  0  0  0  0999 V2000
   10.8245   -3.1437   26.1071 C   0  0  0  0  0  0  0  0  0  0  0  0
    9.4168   -2.7498   25.7705 C   0  0  0  0  0  0  0  0  0  0  0  0
    8.4107   -3.6655   26.4024 C   0  0  0  0  0  0  0  0  0  0  0  0
    7.0425   -3.1926   26.0096 N   0  0  0  0  0  0  0  0  0  0  0  0
    7.2030   -1.9846   25.1349 C   0  0  0  0  0  0  0  0  0  0  0  0
    6.0913   -1.1899   24.5165 O   0  0  0  0  0  0  0  0  0  0  0  0
    8.6704   -1.7110   24.9871 C   0  0  0  0  0  0  0  0  0  0  0  0
    7.7922   -0.7432   24.2509 C   0  0  0  0  0  0  0  0  0  0  0  0
    8.4055    0.3732   23.4588 N   0  0  0  0  0  0  0  0  0  0  0  0
    9.8970    0.5219   23.4029 C   0  0  0  0  0  0  0  0  0  0  0  0
   10.5103    1.6384   22.6108 O   0  0  0  0  0  0  0  0  0  0  0  0
   10.7753   -0.4459   24.1392 C   0  0  0  0  0  0  0  0  0  0  0  0
   12.2669   -0.2972   24.0833 C   0  0  0  0  0  0  0  0  0  0  0  0
   13.1451   -1.2649   24.8195 C   0  0  0  0  0  0  0  0  0  0  0  0
   12.5318   -2.3814   25.6116 C   0  0  0  0  0  0  0  0  0  0  0  0
   13.4101   -3.3492   26.3479 F   0  0  0  0  0  0  0  0  0  0  0  0
   11.0403   -2.5301   25.6675 C   0  0  0  0  0  0  0  0  0  0  0  0
   10.1620   -1.5623   24.9313 C   0  0  0  0  0  0  0  0  0  0  0  0
    5.7421   -3.8178   26.4195 C   0  0  0  0  0  0  0  0  0  0  0  0
    4.9668   -4.6471   25.4393 C   0  0  0  0  0  0  0  0  0  0  0  0
    3.6664   -5.2723   25.8492 N   0  0  0  0  0  0  0  0  0  0  0  0
    3.1414   -5.0682   27.2394 C   0  0  0  0  0  0  0  0  0  0  0  0
    3.9168   -4.2389   28.2197 C   0  0  0  0  0  0  0  0  0  0  0  0
    3.3917   -4.0348   29.6100 C   0  0  0  0  0  0  0  0  0  0  0  0
    4.1672   -3.2054   30.5902 C   0  0  0  0  0  0  0  0  0  0  0  0
    5.4675   -2.5802   30.1802 C   0  0  0  0  0  0  0  0  0  0  0  0
    5.9925   -2.7843   28.7900 C   0  0  0  0  0  0  0  0  0  0  0  0
    5.2172   -3.6136   27.8098 C   0  0  0  0  0  0  0  0  0  0  0  0
    7.5272    1.3410   22.7225 C   0  0  0  0  0  0  0  0  0  0  0  0
    6.9706    0.9758   21.3783 C   0  0  0  0  0  0  0  0  0  0  0  0
    7.4761   -0.1153   20.4816 C   0  0  0  0  0  0  0  0  0  0  0  0
    6.6288   -0.1279   19.2439 C   0  0  0  0  0  0  0  0  0  0  0  0
    5.5997    0.9555   19.3757 N   0  0  0  0  0  0  0  0  0  0  0  0
    5.8110    1.6376   20.6948 N   0  0  0  0  0  0  0  0  0  0  0  0
    5.0043    2.7808   21.2354 C   0  0  0  0  0  0  0  0  0  0  0  0
  2  1  1  0  0  0
  2  3  1  0  0  0
  3  4  1  0  0  0
  4 19  1  0  0  0
 19 20  2  0  0  0
 20 21  1  0  0  0
 21 22  2  0  0  0
 22 23  1  0  0  0
 23 24  2  0  0  0
 24 25  1  0  0  0
 25 26  2  0  0  0
 26 27  1  0  0  0
 27 28  2  0  0  0
  4  5  1  0  0  0
  5  6  2  0  0  0
  5  7  1  0  0  0
  7  8  1  0  0  0
  8  9  1  0  0  0
  9 29  1  0  0  0
 29 30  1  0  0  0
 30 31  2  0  0  0
 31 32  1  0  0  0
 32 33  2  0  0  0
 33 34  1  0  0  0
 34 35  1  0  0  0
  9 10  1  0  0  0
 10 11  2  0  0  0
 10 12  1  0  0  0
 12 13  2  0  0  0
 13 14  1  0  0  0
 14 15  2  0  0  0
 15 16  1  0  0  0
 15 17  1  0  0  0
 17 18  2  0  0  0
  7  2  1  0  0  0
 34 30  1  0  0  0
 18 12  1  0  0  0
 28 19  1  0  0  0
 18  7  1  0  0  0
 28 23  1  0  0  0
M  END
> <minimizedAffinity>
-8.69685

> <CNNscore>
0.2800762951

> <CNNaffinity>
6.3759698868

> <CNN_VS>
1.7857580185

> <CNNaffinity_variance>
0.1420234144

$$$$



 35 40  0  0  0  0  0  0  0  0999 V2000
    4.2162   -0.8555   25.7738 C   0  0  0  0  0  0  0  0  0  0  0  0
    5.1972   -0.9790   24.6458 C   0  0  0  0  0  0  0  0  0  0  0  0
    4.6870   -0.3454   23.3855 C   0  0  0  0  0  0  0  0  0  0  0  0
    5.7317   -0.5197   22.3233 N   0  0  0  0  0  0  0  0  0  0  0  0
    6.8875   -1.2610   22.9271 C   0  0  0  0  0  0  0  0  0  0  0  0
    8.1516   -1.6501   22.2196 O   0  0  0  0  0  0  0  0  0  0  0  0
    6.5572   -1.5449   24.3625 C   0  0  0  0  0  0  0  0  0  0  0  0
    7.8998   -2.0572   23.9326 C   0  0  0  0  0  0  0  0  0  0  0  0
    8.7757   -2.7800   24.9125 N   0  0  0  0  0  0  0  0  0  0  0  0
    8.3089   -2.9905   26.3224 C   0  0  0  0  0  0  0  0  0  0  0  0
    9.1848   -3.7133   27.3024 O   0  0  0  0  0  0  0  0  0  0  0  0
    6.9663   -2.4781   26.7524 C   0  0  0  0  0  0  0  0  0  0  0  0
    6.4995   -2.6886   28.1623 C   0  0  0  0  0  0  0  0  0  0  0  0
    5.1569   -2.1762   28.5922 C   0  0  0  0  0  0  0  0  0  0  0  0
    4.2811   -1.4534   27.6122 C   0  0  0  0  0  0  0  0  0  0  0  0
    2.9384   -0.9410   28.0422 F   0  0  0  0  0  0  0  0  0  0  0  0
    4.7478   -1.2429   26.2023 C   0  0  0  0  0  0  0  0  0  0  0  0
    6.0904   -1.7553   25.7724 C   0  0  0  0  0  0  0  0  0  0  0  0
    5.6371   -0.0374   20.9061 C   0  0  0  0  0  0  0  0  0  0  0  0
    6.6936   -0.4188   19.9120 C   0  0  0  0  0  0  0  0  0  0  0  0
    6.5990    0.0635   18.4948 N   0  0  0  0  0  0  0  0  0  0  0  0
    5.4480    0.9272   18.0718 C   0  0  0  0  0  0  0  0  0  0  0  0
    4.3914    1.3086   19.0659 C   0  0  0  0  0  0  0  0  0  0  0  0
    3.2403    2.1724   18.6428 C   0  0  0  0  0  0  0  0  0  0  0  0
    2.1839    2.5538   19.6370 C   0  0  0  0  0  0  0  0  0  0  0  0
    2.2785    2.0715   21.0541 C   0  0  0  0  0  0  0  0  0  0  0  0
    3.4295    1.2078   21.4772 C   0  0  0  0  0  0  0  0  0  0  0  0
    4.4860    0.8263   20.4831 C   0  0  0  0  0  0  0  0  0  0  0  0
   10.1183   -3.2924   24.4826 C   0  0  0  0  0  0  0  0  0  0  0  0
   11.3615   -2.5363   24.8469 C   0  0  0  0  0  0  0  0  0  0  0  0
   12.3128   -2.8843   25.9531 C   0  0  0  0  0  0  0  0  0  0  0  0
   13.4109   -1.8624   25.9588 C   0  0  0  0  0  0  0  0  0  0  0  0
   13.1381   -0.8828   24.8561 N   0  0  0  0  0  0  0  0  0  0  0  0
   11.8715   -1.2993   24.1689 N   0  0  0  0  0  0  0  0  0  0  0  0
   11.2280   -0.6013   23.0075 C   0  0  0  0  0  0  0  0  0  0  0  0
  2  1  1  0  0  0
  2  3  1  0  0  0
  3  4  1  0  0  0
  4 19  1  0  0  0
 19 20  2  0  0  0
 20 21  1  0  0  0
 21 22  2  0  0  0
 22 23  1  0  0  0
 23 24  2  0  0  0
 24 25  1  0  0  0
 25 26  2  0  0  0
 26 27  1  0  0  0
 27 28  2  0  0  0
  4  5  1  0  0  0
  5  6  2  0  0  0
  5  7  1  0  0  0
  7  8  1  0  0  0
  8  9  1  0  0  0
  9 29  1  0  0  0
 29 30  1  0  0  0
 30 31  2  0  0  0
 31 32  1  0  0  0
 32 33  2  0  0  0
 33 34  1  0  0  0
 34 35  1  0  0  0
  9 10  1  0  0  0
 10 11  2  0  0  0
 10 12  1  0  0  0
 12 13  2  0  0  0
 13 14  1  0  0  0
 14 15  2  0  0  0
 15 16  1  0  0  0
 15 17  1  0  0  0
 17 18  2  0  0  0
  7  2  1  0  0  0
 34 30  1  0  0  0
 18 12  1  0  0  0
 28 19  1  0  0  0
 18  7  1  0  0  0
 28 23  1  0  0  0
M  END
> <minimizedAffinity>
-8.37575

> <CNNscore>
0.2694684267

> <CNNaffinity>
6.2846217155

> <CNN_VS>
1.6935070753

> <CNNaffinity_variance>
0.0379863605

$$$$



 35 40  0  0  0  0  0  0  0  0999 V2000
    7.1227    0.0385   20.0444 C   0  0  0  0  0  0  0  0  0  0  0  0
    7.5237    0.0771   21.4893 C   0  0  0  0  0  0  0  0  0  0  0  0
    8.9182   -0.4341   21.6992 C   0  0  0  0  0  0  0  0  0  0  0  0
    9.2247   -0.3561   23.1655 N   0  0  0  0  0  0  0  0  0  0  0  0
    8.0196    0.2033   23.8618 C   0  0  0  0  0  0  0  0  0  0  0  0
    7.8887    0.4514   25.3353 O   0  0  0  0  0  0  0  0  0  0  0  0
    6.9683    0.4711   22.8258 C   0  0  0  0  0  0  0  0  0  0  0  0
    6.5503    0.8200   24.2235 C   0  0  0  0  0  0  0  0  0  0  0  0
    5.1837    1.3829   24.4792 N   0  0  0  0  0  0  0  0  0  0  0  0
    4.2349    1.5968   23.3372 C   0  0  0  0  0  0  0  0  0  0  0  0
    2.8683    2.1596   23.5929 O   0  0  0  0  0  0  0  0  0  0  0  0
    4.6529    1.2478   21.9395 C   0  0  0  0  0  0  0  0  0  0  0  0
    3.7041    1.4617   20.7975 C   0  0  0  0  0  0  0  0  0  0  0  0
    4.1221    1.1127   19.3999 C   0  0  0  0  0  0  0  0  0  0  0  0
    5.4888    0.5498   19.1442 C   0  0  0  0  0  0  0  0  0  0  0  0
    5.9067    0.2008   17.7464 F   0  0  0  0  0  0  0  0  0  0  0  0
    6.4375    0.3359   20.2861 C   0  0  0  0  0  0  0  0  0  0  0  0
    6.0195    0.6849   21.6838 C   0  0  0  0  0  0  0  0  0  0  0  0
   10.5104   -0.7656   23.8205 C   0  0  0  0  0  0  0  0  0  0  0  0
   11.7450    0.0656   23.6342 C   0  0  0  0  0  0  0  0  0  0  0  0
   13.0308   -0.3439   24.2892 N   0  0  0  0  0  0  0  0  0  0  0  0
   13.0819   -1.5847   25.1306 C   0  0  0  0  0  0  0  0  0  0  0  0
   11.8473   -2.4159   25.3169 C   0  0  0  0  0  0  0  0  0  0  0  0
   11.8984   -3.6567   26.1584 C   0  0  0  0  0  0  0  0  0  0  0  0
   10.6637   -4.4879   26.3446 C   0  0  0  0  0  0  0  0  0  0  0  0
    9.3780   -4.0783   25.6896 C   0  0  0  0  0  0  0  0  0  0  0  0
    9.3269   -2.8376   24.8482 C   0  0  0  0  0  0  0  0  0  0  0  0
   10.5615   -2.0064   24.6619 C   0  0  0  0  0  0  0  0  0  0  0  0
    4.7657    1.7319   25.8769 C   0  0  0  0  0  0  0  0  0  0  0  0
    5.3171    2.9590   26.5403 C   0  0  0  0  0  0  0  0  0  0  0  0
    5.3889    4.3306   25.9372 C   0  0  0  0  0  0  0  0  0  0  0  0
    6.0097    5.2493   26.9474 C   0  0  0  0  0  0  0  0  0  0  0  0
    6.3217    4.4455   28.1749 N   0  0  0  0  0  0  0  0  0  0  0  0
    5.8936    3.0301   27.9232 N   0  0  0  0  0  0  0  0  0  0  0  0
    6.0199    1.8865   28.8856 C   0  0  0  0  0  0  0  0  0  0  0  0
  2  1  1  0  0  0
  2  3  1  0  0  0
  3  4  1  0  0  0
  4 19  1  0  0  0
 19 20  2  0  0  0
 20 21  1  0  0  0
 21 22  2  0  0  0
 22 23  1  0  0  0
 23 24  2  0  0  0
 24 25  1  0  0  0
 25 26  2  0  0  0
 26 27  1  0  0  0
 27 28  2  0  0  0
  4  5  1  0  0  0
  5  6  2  0  0  0
  5  7  1  0  0  0
  7  8  1  0  0  0
  8  9  1  0  0  0
  9 29  1  0  0  0
 29 30  1  0  0  0
 30 31  2  0  0  0
 31 32  1  0  0  0
 32 33  2  0  0  0
 33 34  1  0  0  0
 34 35  1  0  0  0
  9 10  1  0  0  0
 10 11  2  0  0  0
 10 12  1  0  0  0
 12 13  2  0  0  0
 13 14  1  0  0  0
 14 15  2  0  0  0
 15 16  1  0  0  0
 15 17  1  0  0  0
 17 18  2  0  0  0
  7  2  1  0  0  0
 34 30  1  0  0  0
 18 12  1  0  0  0
 28 19  1  0  0  0
 18  7  1  0  0  0
 28 23  1  0  0  0
M  END
> <minimizedAffinity>
-8.36652

> <CNNscore>
0.2604048550

> <CNNaffinity>
6.3554716110

> <CNN_VS>
1.6549956799

> <CNNaffinity_variance>
0.0833590850

$$$$



 35 40  0  0  0  0  0  0  0  0999 V2000
    7.0719    0.0466   20.0217 C   0  0  0  0  0  0  0  0  0  0  0  0
    7.4844    0.1190   21.4621 C   0  0  0  0  0  0  0  0  0  0  0  0
    8.8710   -0.4112   21.6768 C   0  0  0  0  0  0  0  0  0  0  0  0
    9.1898   -0.2970   23.1381 N   0  0  0  0  0  0  0  0  0  0  0  0
    8.0002    0.3037   23.8265 C   0  0  0  0  0  0  0  0  0  0  0  0
    7.8849    0.5960   25.2932 O   0  0  0  0  0  0  0  0  0  0  0  0
    6.9461    0.5608   22.7907 C   0  0  0  0  0  0  0  0  0  0  0  0
    6.5450    0.9570   24.1807 C   0  0  0  0  0  0  0  0  0  0  0  0
    5.1906    1.5515   24.4297 N   0  0  0  0  0  0  0  0  0  0  0  0
    4.2373    1.7499   23.2888 C   0  0  0  0  0  0  0  0  0  0  0  0
    2.8828    2.3445   23.5378 O   0  0  0  0  0  0  0  0  0  0  0  0
    4.6384    1.3538   21.8987 C   0  0  0  0  0  0  0  0  0  0  0  0
    3.6851    1.5523   20.7578 C   0  0  0  0  0  0  0  0  0  0  0  0
    4.0862    1.1561   19.3678 C   0  0  0  0  0  0  0  0  0  0  0  0
    5.4407    0.5616   19.1187 C   0  0  0  0  0  0  0  0  0  0  0  0
    5.8418    0.1655   17.7286 F   0  0  0  0  0  0  0  0  0  0  0  0
    6.3940    0.3632   20.2597 C   0  0  0  0  0  0  0  0  0  0  0  0
    5.9928    0.7593   21.6497 C   0  0  0  0  0  0  0  0  0  0  0  0
   10.4730   -0.7109   23.7955 C   0  0  0  0  0  0  0  0  0  0  0  0
   11.7205    0.0927   23.5777 C   0  0  0  0  0  0  0  0  0  0  0  0
   13.0037   -0.3212   24.2352 N   0  0  0  0  0  0  0  0  0  0  0  0
   13.0391   -1.5388   25.1105 C   0  0  0  0  0  0  0  0  0  0  0  0
   11.7915   -2.3425   25.3283 C   0  0  0  0  0  0  0  0  0  0  0  0
   11.8270   -3.5602   26.2036 C   0  0  0  0  0  0  0  0  0  0  0  0
   10.5793   -4.3638   26.4214 C   0  0  0  0  0  0  0  0  0  0  0  0
    9.2962   -3.9499   25.7639 C   0  0  0  0  0  0  0  0  0  0  0  0
    9.2608   -2.7323   24.8886 C   0  0  0  0  0  0  0  0  0  0  0  0
   10.5083   -1.9286   24.6708 C   0  0  0  0  0  0  0  0  0  0  0  0
    4.7895    1.9476   25.8198 C   0  0  0  0  0  0  0  0  0  0  0  0
    4.6667    0.9047   26.8909 C   0  0  0  0  0  0  0  0  0  0  0  0
    3.7523   -0.2841   26.8634 C   0  0  0  0  0  0  0  0  0  0  0  0
    3.9573   -1.0560   28.1331 C   0  0  0  0  0  0  0  0  0  0  0  0
    4.9984   -0.3443   28.9453 N   0  0  0  0  0  0  0  0  0  0  0  0
    5.4368    0.8675   28.1776 N   0  0  0  0  0  0  0  0  0  0  0  0
    6.4648    1.8666   28.6191 C   0  0  0  0  0  0  0  0  0  0  0  0
  2  1  1  0  0  0
  2  3  1  0  0  0
  3  4  1  0  0  0
  4 19  1  0  0  0
 19 20  2  0  0  0
 20 21  1  0  0  0
 21 22  2  0  0  0
 22 23  1  0  0  0
 23 24  2  0  0  0
 24 25  1  0  0  0
 25 26  2  0  0  0
 26 27  1  0  0  0
 27 28  2  0  0  0
  4  5  1  0  0  0
  5  6  2  0  0  0
  5  7  1  0  0  0
  7  8  1  0  0  0
  8  9  1  0  0  0
  9 29  1  0  0  0
 29 30  1  0  0  0
 30 31  2  0  0  0
 31 32  1  0  0  0
 32 33  2  0  0  0
 33 34  1  0  0  0
 34 35  1  0  0  0
  9 10  1  0  0  0
 10 11  2  0  0  0
 10 12  1  0  0  0
 12 13  2  0  0  0
 13 14  1  0  0  0
 14 15  2  0  0  0
 15 16  1  0  0  0
 15 17  1  0  0  0
 17 18  2  0  0  0
  7  2  1  0  0  0
 34 30  1  0  0  0
 18 12  1  0  0  0
 28 19  1  0  0  0
 18  7  1  0  0  0
 28 23  1  0  0  0
M  END
> <minimizedAffinity>
-8.20142

> <CNNscore>
0.2343131751

> <CNNaffinity>
6.2804021835

> <CNN_VS>
1.4715809822

> <CNNaffinity_variance>
0.1187579259

$$$$



 35 40  0  0  0  0  0  0  0  0999 V2000
   10.8103   -3.7377   25.6021 C   0  0  0  0  0  0  0  0  0  0  0  0
    9.6048   -3.4236   24.7663 C   0  0  0  0  0  0  0  0  0  0  0  0
    8.5473   -4.4807   24.8860 C   0  0  0  0  0  0  0  0  0  0  0  0
    7.3904   -4.0791   24.0198 N   0  0  0  0  0  0  0  0  0  0  0  0
    7.7330   -2.7738   23.3648 C   0  0  0  0  0  0  0  0  0  0  0  0
    6.8601   -2.0081   22.4152 O   0  0  0  0  0  0  0  0  0  0  0  0
    9.1016   -2.3687   23.8262 C   0  0  0  0  0  0  0  0  0  0  0  0
    8.4677   -1.3999   22.8725 C   0  0  0  0  0  0  0  0  0  0  0  0
    9.2038   -0.1580   22.4653 N   0  0  0  0  0  0  0  0  0  0  0  0
   10.5736    0.1152   23.0118 C   0  0  0  0  0  0  0  0  0  0  0  0
   11.3097    1.3571   22.6046 O   0  0  0  0  0  0  0  0  0  0  0  0
   11.2076   -0.8536   23.9656 C   0  0  0  0  0  0  0  0  0  0  0  0
   12.5775   -0.5805   24.5121 C   0  0  0  0  0  0  0  0  0  0  0  0
   13.2113   -1.5493   25.4659 C   0  0  0  0  0  0  0  0  0  0  0  0
   12.4753   -2.7912   25.8731 C   0  0  0  0  0  0  0  0  0  0  0  0
   13.1092   -3.7600   26.8269 F   0  0  0  0  0  0  0  0  0  0  0  0
   11.1054   -3.0644   25.3265 C   0  0  0  0  0  0  0  0  0  0  0  0
   10.4715   -2.0956   24.3728 C   0  0  0  0  0  0  0  0  0  0  0  0
    6.1150   -4.8477   23.8401 C   0  0  0  0  0  0  0  0  0  0  0  0
    5.8335   -5.5402   22.5397 C   0  0  0  0  0  0  0  0  0  0  0  0
    4.5581   -6.3089   22.3600 N   0  0  0  0  0  0  0  0  0  0  0  0
    3.5640   -6.3850   23.4807 C   0  0  0  0  0  0  0  0  0  0  0  0
    3.8455   -5.6924   24.7812 C   0  0  0  0  0  0  0  0  0  0  0  0
    2.8514   -5.7686   25.9019 C   0  0  0  0  0  0  0  0  0  0  0  0
    3.1329   -5.0760   27.2024 C   0  0  0  0  0  0  0  0  0  0  0  0
    4.4084   -4.3074   27.3820 C   0  0  0  0  0  0  0  0  0  0  0  0
    5.4024   -4.2313   26.2613 C   0  0  0  0  0  0  0  0  0  0  0  0
    5.1210   -4.9238   24.9609 C   0  0  0  0  0  0  0  0  0  0  0  0
    8.5698    0.8108   21.5115 C   0  0  0  0  0  0  0  0  0  0  0  0
    7.8168    1.9968   22.0371 C   0  0  0  0  0  0  0  0  0  0  0  0
    8.3322    3.0018   23.0242 C   0  0  0  0  0  0  0  0  0  0  0  0
    7.2500    4.0121   23.2651 C   0  0  0  0  0  0  0  0  0  0  0  0
    6.0657    3.6315   22.4269 N   0  0  0  0  0  0  0  0  0  0  0  0
    6.4160    2.3860   21.6680 N   0  0  0  0  0  0  0  0  0  0  0  0
    5.5223    1.6576   20.7084 C   0  0  0  0  0  0  0  0  0  0  0  0
  2  1  1  0  0  0
  2  3  1  0  0  0
  3  4  1  0  0  0
  4 19  1  0  0  0
 19 20  2  0  0  0
 20 21  1  0  0  0
 21 22  2  0  0  0
 22 23  1  0  0  0
 23 24  2  0  0  0
 24 25  1  0  0  0
 25 26  2  0  0  0
 26 27  1  0  0  0
 27 28  2  0  0  0
  4  5  1  0  0  0
  5  6  2  0  0  0
  5  7  1  0  0  0
  7  8  1  0  0  0
  8  9  1  0  0  0
  9 29  1  0  0  0
 29 30  1  0  0  0
 30 31  2  0  0  0
 31 32  1  0  0  0
 32 33  2  0  0  0
 33 34  1  0  0  0
 34 35  1  0  0  0
  9 10  1  0  0  0
 10 11  2  0  0  0
 10 12  1  0  0  0
 12 13  2  0  0  0
 13 14  1  0  0  0
 14 15  2  0  0  0
 15 16  1  0  0  0
 15 17  1  0  0  0
 17 18  2  0  0  0
  7  2  1  0  0  0
 34 30  1  0  0  0
 18 12  1  0  0  0
 28 19  1  0  0  0
 18  7  1  0  0  0
 28 23  1  0  0  0
M  END
> <minimizedAffinity>
-8.76148

> <CNNscore>
0.2213126421

> <CNNaffinity>
6.4615097046

> <CNN_VS>
1.4300137758

> <CNNaffinity_variance>
0.1605588794

$$$$
