


 35 40  0  0  0  0  0  0  0  0999 V2000
   -7.2749    0.0402  -21.2191 C   0  0  0  0  0  0  0  0  0  0  0  0
   -8.4891   -0.0562  -22.0947 C   0  0  0  0  0  0  0  0  0  0  0  0
   -9.2448    1.2383  -22.1518 C   0  0  0  0  0  0  0  0  0  0  0  0
  -10.4332    1.0422  -23.0457 N   0  0  0  0  0  0  0  0  0  0  0  0
  -10.4120   -0.3735  -23.5410 C   0  0  0  0  0  0  0  0  0  0  0  0
  -11.4162   -1.0003  -24.4624 O   0  0  0  0  0  0  0  0  0  0  0  0
   -9.2105   -1.0523  -22.9533 C   0  0  0  0  0  0  0  0  0  0  0  0
  -10.0355   -1.9346  -23.8427 C   0  0  0  0  0  0  0  0  0  0  0  0
   -9.6270   -3.3594  -24.0731 N   0  0  0  0  0  0  0  0  0  0  0  0
   -8.3936   -3.9019  -23.4142 C   0  0  0  0  0  0  0  0  0  0  0  0
   -7.9851   -5.3267  -23.6446 O   0  0  0  0  0  0  0  0  0  0  0  0
   -7.5685   -3.0197  -22.5248 C   0  0  0  0  0  0  0  0  0  0  0  0
   -6.3350   -3.5622  -21.8659 C   0  0  0  0  0  0  0  0  0  0  0  0
   -5.5100   -2.6800  -20.9766 C   0  0  0  0  0  0  0  0  0  0  0  0
   -5.9185   -1.2552  -20.7462 C   0  0  0  0  0  0  0  0  0  0  0  0
   -5.0934   -0.3729  -19.8568 F   0  0  0  0  0  0  0  0  0  0  0  0
   -7.1519   -0.7126  -21.4051 C   0  0  0  0  0  0  0  0  0  0  0  0
   -7.9769   -1.5949  -22.2944 C   0  0  0  0  0  0  0  0  0  0  0  0
  -11.4623    2.0796  -23.3847 C   0  0  0  0  0  0  0  0  0  0  0  0
  -12.8994    1.8587  -23.0166 C   0  0  0  0  0  0  0  0  0  0  0  0
  -13.9285    2.8961  -23.3556 N   0  0  0  0  0  0  0  0  0  0  0  0
  -13.5202    4.1543  -24.0627 C   0  0  0  0  0  0  0  0  0  0  0  0
  -12.0830    4.3752  -24.4308 C   0  0  0  0  0  0  0  0  0  0  0  0
  -11.6747    5.6336  -25.1380 C   0  0  0  0  0  0  0  0  0  0  0  0
  -10.2374    5.8544  -25.5061 C   0  0  0  0  0  0  0  0  0  0  0  0
   -9.2085    4.8170  -25.1670 C   0  0  0  0  0  0  0  0  0  0  0  0
   -9.6168    3.5587  -24.4599 C   0  0  0  0  0  0  0  0  0  0  0  0
  -11.0539    3.3379  -24.0918 C   0  0  0  0  0  0  0  0  0  0  0  0
  -10.4521   -4.2417  -24.9625 C   0  0  0  0  0  0  0  0  0  0  0  0
   -9.8288   -4.8891  -26.1634 C   0  0  0  0  0  0  0  0  0  0  0  0
  -10.0917   -6.2837  -26.6493 C   0  0  0  0  0  0  0  0  0  0  0  0
   -9.2586   -6.5121  -27.8755 C   0  0  0  0  0  0  0  0  0  0  0  0
   -8.4808   -5.2586  -28.1475 N   0  0  0  0  0  0  0  0  0  0  0  0
   -8.8333   -4.2556  -27.0894 N   0  0  0  0  0  0  0  0  0  0  0  0
   -8.2861   -2.8634  -26.9770 C   0  0  0  0  0  0  0  0  0  0  0  0
  2  1  1  0  0  0
  2  3  1  0  0  0
  3  4  1  0  0  0
  4 19  1  0  0  0
 19 20  2  0  0  0
 20 21  1  0  0  0
 21 22  2  0  0  0
 22 23  1  0  0  0
 23 24  2  0  0  0
 24 25  1  0  0  0
 25 26  2  0  0  0
 26 27  1  0  0  0
 27 28  2  0  0  0
  4  5  1  0  0  0
  5  6  2  0  0  0
  5  7  1  0  0  0
  7  8  1  0  0  0
  8  9  1  0  0  0
  9 29  1  0  0  0
 29 30  1  0  0  0
 30 31  2  0  0  0
 31 32  1  0  0  0
 32 33  2  0  0  0
 33 34  1  0  0  0
 34 35  1  0  0  0
  9 10  1  0  0  0
 10 11  2  0  0  0
 10 12  1  0  0  0
 12 13  2  0  0  0
 13 14  1  0  0  0
 14 15  2  0  0  0
 15 16  1  0  0  0
 15 17  1  0  0  0
 17 18  2  0  0  0
  7  2  1  0  0  0
 34 30  1  0  0  0
 18 12  1  0  0  0
 28 19  1  0  0  0
 18  7  1  0  0  0
 28 23  1  0  0  0
M  END
> <minimizedAffinity>
-9.23355

> <CNNscore>
0.5727055669

> <CNNaffinity>
6.4270248413

> <CNN_VS>
3.6807928085

> <CNNaffinity_variance>
0.1709198207

$$$$



 35 40  0  0  0  0  0  0  0  0999 V2000
  -11.0055   -2.5581  -24.5186 C   0  0  0  0  0  0  0  0  0  0  0  0
  -10.5649   -1.2444  -23.9440 C   0  0  0  0  0  0  0  0  0  0  0  0
  -11.6517   -0.2123  -24.0036 C   0  0  0  0  0  0  0  0  0  0  0  0
  -11.1180    1.0576  -23.4097 N   0  0  0  0  0  0  0  0  0  0  0  0
   -9.7014    0.8102  -22.9833 C   0  0  0  0  0  0  0  0  0  0  0  0
   -8.7871    1.8101  -22.3395 O   0  0  0  0  0  0  0  0  0  0  0  0
   -9.3595   -0.6125  -23.3135 C   0  0  0  0  0  0  0  0  0  0  0  0
   -8.2392    0.1509  -22.6715 C   0  0  0  0  0  0  0  0  0  0  0  0
   -6.9231   -0.5217  -22.4160 N   0  0  0  0  0  0  0  0  0  0  0  0
   -6.7272   -1.9577  -22.8025 C   0  0  0  0  0  0  0  0  0  0  0  0
   -5.4110   -2.6304  -22.5470 O   0  0  0  0  0  0  0  0  0  0  0  0
   -7.8475   -2.7212  -23.4445 C   0  0  0  0  0  0  0  0  0  0  0  0
   -7.6516   -4.1572  -23.8310 C   0  0  0  0  0  0  0  0  0  0  0  0
   -8.7718   -4.9206  -24.4730 C   0  0  0  0  0  0  0  0  0  0  0  0
  -10.0880   -4.2480  -24.7285 C   0  0  0  0  0  0  0  0  0  0  0  0
  -11.2083   -5.0114  -25.3705 F   0  0  0  0  0  0  0  0  0  0  0  0
  -10.2839   -2.8119  -24.3420 C   0  0  0  0  0  0  0  0  0  0  0  0
   -9.1636   -2.0486  -23.7000 C   0  0  0  0  0  0  0  0  0  0  0  0
  -11.8691    2.3481  -23.2674 C   0  0  0  0  0  0  0  0  0  0  0  0
  -12.9502    2.4769  -22.2357 C   0  0  0  0  0  0  0  0  0  0  0  0
  -13.7013    3.7675  -22.0933 N   0  0  0  0  0  0  0  0  0  0  0  0
  -13.3712    4.9293  -22.9828 C   0  0  0  0  0  0  0  0  0  0  0  0
  -12.2900    4.8006  -24.0146 C   0  0  0  0  0  0  0  0  0  0  0  0
  -11.9599    5.9625  -24.9041 C   0  0  0  0  0  0  0  0  0  0  0  0
  -10.8788    5.8336  -25.9358 C   0  0  0  0  0  0  0  0  0  0  0  0
  -10.1278    4.5431  -26.0781 C   0  0  0  0  0  0  0  0  0  0  0  0
  -10.4579    3.3812  -25.1886 C   0  0  0  0  0  0  0  0  0  0  0  0
  -11.5389    3.5100  -24.1569 C   0  0  0  0  0  0  0  0  0  0  0  0
   -5.8028    0.2418  -21.7739 C   0  0  0  0  0  0  0  0  0  0  0  0
   -5.5992    0.1684  -20.2896 C   0  0  0  0  0  0  0  0  0  0  0  0
   -4.5083    0.8463  -19.5147 C   0  0  0  0  0  0  0  0  0  0  0  0
   -4.6857    0.5012  -18.0658 C   0  0  0  0  0  0  0  0  0  0  0  0
   -5.8863   -0.3900  -17.9452 N   0  0  0  0  0  0  0  0  0  0  0  0
   -6.4508   -0.5956  -19.3196 N   0  0  0  0  0  0  0  0  0  0  0  0
   -7.6555   -1.4205  -19.6636 C   0  0  0  0  0  0  0  0  0  0  0  0
  2  1  1  0  0  0
  2  3  1  0  0  0
  3  4  1  0  0  0
  4 19  1  0  0  0
 19 20  2  0  0  0
 20 21  1  0  0  0
 21 22  2  0  0  0
 22 23  1  0  0  0
 23 24  2  0  0  0
 24 25  1  0  0  0
 25 26  2  0  0  0
 26 27  1  0  0  0
 27 28  2  0  0  0
  4  5  1  0  0  0
  5  6  2  0  0  0
  5  7  1  0  0  0
  7  8  1  0  0  0
  8  9  1  0  0  0
  9 29  1  0  0  0
 29 30  1  0  0  0
 30 31  2  0  0  0
 31 32  1  0  0  0
 32 33  2  0  0  0
 33 34  1  0  0  0
 34 35  1  0  0  0
  9 10  1  0  0  0
 10 11  2  0  0  0
 10 12  1  0  0  0
 12 13  2  0  0  0
 13 14  1  0  0  0
 14 15  2  0  0  0
 15 16  1  0  0  0
 15 17  1  0  0  0
 17 18  2  0  0  0
  7  2  1  0  0  0
 34 30  1  0  0  0
 18 12  1  0  0  0
 28 19  1  0  0  0
 18  7  1  0  0  0
 28 23  1  0  0  0
M  END
> <minimizedAffinity>
-8.24153

> <CNNscore>
0.5282906890

> <CNNaffinity>
6.6063413620

> <CNN_VS>
3.4900686741

> <CNNaffinity_variance>
0.0406824872

$$$$



 35 40  0  0  0  0  0  0  0  0999 V2000
   -6.2236    4.5293  -25.4413 C   0  0  0  0  0  0  0  0  0  0  0  0
   -6.8255    3.3762  -24.6941 C   0  0  0  0  0  0  0  0  0  0  0  0
   -8.3181    3.3322  -24.8363 C   0  0  0  0  0  0  0  0  0  0  0  0
   -8.8232    2.1529  -24.0592 N   0  0  0  0  0  0  0  0  0  0  0  0
   -7.6427    1.4680  -23.4366 C   0  0  0  0  0  0  0  0  0  0  0  0
   -7.6889    0.2423  -22.5733 O   0  0  0  0  0  0  0  0  0  0  0  0
   -6.4081    2.2241  -23.8290 C   0  0  0  0  0  0  0  0  0  0  0  0
   -6.1429    1.0343  -22.9550 C   0  0  0  0  0  0  0  0  0  0  0  0
   -4.7376    0.6974  -22.5529 N   0  0  0  0  0  0  0  0  0  0  0  0
   -3.5975    1.5503  -23.0249 C   0  0  0  0  0  0  0  0  0  0  0  0
   -2.1922    1.2134  -22.6228 O   0  0  0  0  0  0  0  0  0  0  0  0
   -3.8627    2.7401  -23.8990 C   0  0  0  0  0  0  0  0  0  0  0  0
   -2.7226    3.5930  -24.3710 C   0  0  0  0  0  0  0  0  0  0  0  0
   -2.9879    4.7828  -25.2450 C   0  0  0  0  0  0  0  0  0  0  0  0
   -4.3931    5.1197  -25.6471 C   0  0  0  0  0  0  0  0  0  0  0  0
   -4.6583    6.3096  -26.5212 F   0  0  0  0  0  0  0  0  0  0  0  0
   -5.5332    4.2668  -25.1751 C   0  0  0  0  0  0  0  0  0  0  0  0
   -5.2680    3.0770  -24.3011 C   0  0  0  0  0  0  0  0  0  0  0  0
  -10.2570    1.7322  -23.9276 C   0  0  0  0  0  0  0  0  0  0  0  0
  -10.6079    0.2755  -23.8592 C   0  0  0  0  0  0  0  0  0  0  0  0
  -12.0417   -0.1451  -23.7276 N   0  0  0  0  0  0  0  0  0  0  0  0
  -13.1245    0.8910  -23.6646 C   0  0  0  0  0  0  0  0  0  0  0  0
  -12.7735    2.3478  -23.7330 C   0  0  0  0  0  0  0  0  0  0  0  0
  -13.8564    3.3839  -23.6700 C   0  0  0  0  0  0  0  0  0  0  0  0
  -13.5053    4.8406  -23.7384 C   0  0  0  0  0  0  0  0  0  0  0  0
  -12.0716    5.2612  -23.8700 C   0  0  0  0  0  0  0  0  0  0  0  0
  -10.9888    4.2251  -23.9330 C   0  0  0  0  0  0  0  0  0  0  0  0
  -11.3397    2.7684  -23.8646 C   0  0  0  0  0  0  0  0  0  0  0  0
   -4.4724   -0.4925  -21.6788 C   0  0  0  0  0  0  0  0  0  0  0  0
   -4.8354   -0.4502  -20.2240 C   0  0  0  0  0  0  0  0  0  0  0  0
   -4.7545    0.7514  -19.3297 C   0  0  0  0  0  0  0  0  0  0  0  0
   -5.2121    0.3422  -17.9611 C   0  0  0  0  0  0  0  0  0  0  0  0
   -5.5758   -1.1123  -18.0096 N   0  0  0  0  0  0  0  0  0  0  0  0
   -5.3430   -1.6019  -19.4081 N   0  0  0  0  0  0  0  0  0  0  0  0
   -5.5767   -2.9983  -19.9038 C   0  0  0  0  0  0  0  0  0  0  0  0
  2  1  1  0  0  0
  2  3  1  0  0  0
  3  4  1  0  0  0
  4 19  1  0  0  0
 19 20  2  0  0  0
 20 21  1  0  0  0
 21 22  2  0  0  0
 22 23  1  0  0  0
 23 24  2  0  0  0
 24 25  1  0  0  0
 25 26  2  0  0  0
 26 27  1  0  0  0
 27 28  2  0  0  0
  4  5  1  0  0  0
  5  6  2  0  0  0
  5  7  1  0  0  0
  7  8  1  0  0  0
  8  9  1  0  0  0
  9 29  1  0  0  0
 29 30  1  0  0  0
 30 31  2  0  0  0
 31 32  1  0  0  0
 32 33  2  0  0  0
 33 34  1  0  0  0
 34 35  1  0  0  0
  9 10  1  0  0  0
 10 11  2  0  0  0
 10 12  1  0  0  0
 12 13  2  0  0  0
 13 14  1  0  0  0
 14 15  2  0  0  0
 15 16  1  0  0  0
 15 17  1  0  0  0
 17 18  2  0  0  0
  7  2  1  0  0  0
 34 30  1  0  0  0
 18 12  1  0  0  0
 28 19  1  0  0  0
 18  7  1  0  0  0
 28 23  1  0  0  0
M  END
> <minimizedAffinity>
-7.76580

> <CNNscore>
0.3785689771

> <CNNaffinity>
6.0318250656

> <CNN_VS>
2.2834618092

> <CNNaffinity_variance>
0.0937853605

$$$$



 35 40  0  0  0  0  0  0  0  0999 V2000
   -5.9386   -5.3840  -23.0235 C   0  0  0  0  0  0  0  0  0  0  0  0
   -6.5103   -4.0918  -22.5199 C   0  0  0  0  0  0  0  0  0  0  0  0
   -5.6367   -3.4593  -21.4775 C   0  0  0  0  0  0  0  0  0  0  0  0
   -6.2888   -2.1815  -21.0393 N   0  0  0  0  0  0  0  0  0  0  0  0
   -7.5654   -2.0243  -21.8110 C   0  0  0  0  0  0  0  0  0  0  0  0
   -8.5350   -0.8863  -21.6890 O   0  0  0  0  0  0  0  0  0  0  0  0
   -7.7024   -3.2050  -22.7261 C   0  0  0  0  0  0  0  0  0  0  0  0
   -8.8323   -2.2233  -22.8235 C   0  0  0  0  0  0  0  0  0  0  0  0
   -9.9628   -2.4732  -23.7772 N   0  0  0  0  0  0  0  0  0  0  0  0
   -9.9633   -3.7048  -24.6335 C   0  0  0  0  0  0  0  0  0  0  0  0
  -11.0938   -3.9547  -25.5872 O   0  0  0  0  0  0  0  0  0  0  0  0
   -8.8333   -4.6865  -24.5361 C   0  0  0  0  0  0  0  0  0  0  0  0
   -8.8338   -5.9180  -25.3924 C   0  0  0  0  0  0  0  0  0  0  0  0
   -7.7039   -6.8996  -25.2950 C   0  0  0  0  0  0  0  0  0  0  0  0
   -6.5734   -6.6497  -24.3413 C   0  0  0  0  0  0  0  0  0  0  0  0
   -5.4434   -7.6314  -24.2439 F   0  0  0  0  0  0  0  0  0  0  0  0
   -6.5729   -5.4182  -23.4850 C   0  0  0  0  0  0  0  0  0  0  0  0
   -7.7028   -4.4366  -23.5824 C   0  0  0  0  0  0  0  0  0  0  0  0
   -5.7575   -1.2282  -20.0102 C   0  0  0  0  0  0  0  0  0  0  0  0
   -6.2618   -1.2906  -18.5990 C   0  0  0  0  0  0  0  0  0  0  0  0
   -5.7305   -0.3373  -17.5699 N   0  0  0  0  0  0  0  0  0  0  0  0
   -4.6950    0.6783  -17.9521 C   0  0  0  0  0  0  0  0  0  0  0  0
   -4.1907    0.7407  -19.3635 C   0  0  0  0  0  0  0  0  0  0  0  0
   -3.1551    1.7564  -19.7457 C   0  0  0  0  0  0  0  0  0  0  0  0
   -2.6509    1.8187  -21.1570 C   0  0  0  0  0  0  0  0  0  0  0  0
   -3.1822    0.8654  -22.1860 C   0  0  0  0  0  0  0  0  0  0  0  0
   -4.2177   -0.1502  -21.8038 C   0  0  0  0  0  0  0  0  0  0  0  0
   -4.7220   -0.2126  -20.3926 C   0  0  0  0  0  0  0  0  0  0  0  0
  -11.0928   -1.4915  -23.8746 C   0  0  0  0  0  0  0  0  0  0  0  0
  -10.8035   -0.0267  -24.0180 C   0  0  0  0  0  0  0  0  0  0  0  0
   -9.5135    0.5750  -24.4910 C   0  0  0  0  0  0  0  0  0  0  0  0
   -9.6661    2.0672  -24.4790 C   0  0  0  0  0  0  0  0  0  0  0  0
  -11.0505    2.3876  -23.9987 N   0  0  0  0  0  0  0  0  0  0  0  0
  -11.7535    1.0935  -23.7138 N   0  0  0  0  0  0  0  0  0  0  0  0
  -13.1595    0.9457  -23.2126 C   0  0  0  0  0  0  0  0  0  0  0  0
  2  1  1  0  0  0
  2  3  1  0  0  0
  3  4  1  0  0  0
  4 19  1  0  0  0
 19 20  2  0  0  0
 20 21  1  0  0  0
 21 22  2  0  0  0
 22 23  1  0  0  0
 23 24  2  0  0  0
 24 25  1  0  0  0
 25 26  2  0  0  0
 26 27  1  0  0  0
 27 28  2  0  0  0
  4  5  1  0  0  0
  5  6  2  0  0  0
  5  7  1  0  0  0
  7  8  1  0  0  0
  8  9  1  0  0  0
  9 29  1  0  0  0
 29 30  1  0  0  0
 30 31  2  0  0  0
 31 32  1  0  0  0
 32 33  2  0  0  0
 33 34  1  0  0  0
 34 35  1  0  0  0
  9 10  1  0  0  0
 10 11  2  0  0  0
 10 12  1  0  0  0
 12 13  2  0  0  0
 13 14  1  0  0  0
 14 15  2  0  0  0
 15 16  1  0  0  0
 15 17  1  0  0  0
 17 18  2  0  0  0
  7  2  1  0  0  0
 34 30  1  0  0  0
 18 12  1  0  0  0
 28 19  1  0  0  0
 18  7  1  0  0  0
 28 23  1  0  0  0
M  END
> <minimizedAffinity>
-8.65747

> <CNNscore>
0.3436943889

> <CNNaffinity>
6.2099986076

> <CNN_VS>
2.1343417168

> <CNNaffinity_variance>
0.1433872133

$$$$



 35 40  0  0  0  0  0  0  0  0999 V2000
   -7.1607   -0.2440  -20.7312 C   0  0  0  0  0  0  0  0  0  0  0  0
   -8.2348   -0.3837  -21.7690 C   0  0  0  0  0  0  0  0  0  0  0  0
   -9.0833    0.8493  -21.8689 C   0  0  0  0  0  0  0  0  0  0  0  0
  -10.1212    0.6133  -22.9258 N   0  0  0  0  0  0  0  0  0  0  0  0
   -9.9141   -0.7655  -23.4791 C   0  0  0  0  0  0  0  0  0  0  0  0
  -10.7298   -1.4142  -24.5579 O   0  0  0  0  0  0  0  0  0  0  0  0
   -8.7483   -1.3817  -22.7641 C   0  0  0  0  0  0  0  0  0  0  0  0
   -9.3697   -2.2725  -23.7986 C   0  0  0  0  0  0  0  0  0  0  0  0
   -8.8148   -3.6456  -24.0369 N   0  0  0  0  0  0  0  0  0  0  0  0
   -7.6385   -4.1278  -23.2408 C   0  0  0  0  0  0  0  0  0  0  0  0
   -7.0836   -5.5008  -23.4791 O   0  0  0  0  0  0  0  0  0  0  0  0
   -7.0171   -3.2368  -22.2063 C   0  0  0  0  0  0  0  0  0  0  0  0
   -5.8408   -3.7190  -21.4101 C   0  0  0  0  0  0  0  0  0  0  0  0
   -5.2194   -2.8281  -20.3757 C   0  0  0  0  0  0  0  0  0  0  0  0
   -5.7743   -1.4551  -20.1373 C   0  0  0  0  0  0  0  0  0  0  0  0
   -5.1529   -0.5641  -19.1028 F   0  0  0  0  0  0  0  0  0  0  0  0
   -6.9506   -0.9729  -20.9335 C   0  0  0  0  0  0  0  0  0  0  0  0
   -7.5720   -1.8638  -21.9679 C   0  0  0  0  0  0  0  0  0  0  0  0
  -11.1802    1.5854  -23.3542 C   0  0  0  0  0  0  0  0  0  0  0  0
  -12.5887    1.4241  -22.8645 C   0  0  0  0  0  0  0  0  0  0  0  0
  -13.6477    2.3962  -23.2929 N   0  0  0  0  0  0  0  0  0  0  0  0
  -13.2981    3.5296  -24.2111 C   0  0  0  0  0  0  0  0  0  0  0  0
  -11.8895    3.6909  -24.7009 C   0  0  0  0  0  0  0  0  0  0  0  0
  -11.5399    4.8243  -25.6192 C   0  0  0  0  0  0  0  0  0  0  0  0
  -10.1313    4.9856  -26.1089 C   0  0  0  0  0  0  0  0  0  0  0  0
   -9.0724    4.0135  -25.6805 C   0  0  0  0  0  0  0  0  0  0  0  0
   -9.4220    2.8801  -24.7622 C   0  0  0  0  0  0  0  0  0  0  0  0
  -10.8305    2.7188  -24.2725 C   0  0  0  0  0  0  0  0  0  0  0  0
   -9.4362   -4.5365  -25.0714 C   0  0  0  0  0  0  0  0  0  0  0  0
   -8.5736   -5.2094  -26.0976 C   0  0  0  0  0  0  0  0  0  0  0  0
   -7.5265   -4.5452  -26.9417 C   0  0  0  0  0  0  0  0  0  0  0  0
   -6.9124   -5.5899  -27.8257 C   0  0  0  0  0  0  0  0  0  0  0  0
   -7.5800   -6.8998  -27.5279 N   0  0  0  0  0  0  0  0  0  0  0  0
   -8.6066   -6.6646  -26.4599 N   0  0  0  0  0  0  0  0  0  0  0  0
   -9.5080   -7.7024  -25.8596 C   0  0  0  0  0  0  0  0  0  0  0  0
  2  1  1  0  0  0
  2  3  1  0  0  0
  3  4  1  0  0  0
  4 19  1  0  0  0
 19 20  2  0  0  0
 20 21  1  0  0  0
 21 22  2  0  0  0
 22 23  1  0  0  0
 23 24  2  0  0  0
 24 25  1  0  0  0
 25 26  2  0  0  0
 26 27  1  0  0  0
 27 28  2  0  0  0
  4  5  1  0  0  0
  5  6  2  0  0  0
  5  7  1  0  0  0
  7  8  1  0  0  0
  8  9  1  0  0  0
  9 29  1  0  0  0
 29 30  1  0  0  0
 30 31  2  0  0  0
 31 32  1  0  0  0
 32 33  2  0  0  0
 33 34  1  0  0  0
 34 35  1  0  0  0
  9 10  1  0  0  0
 10 11  2  0  0  0
 10 12  1  0  0  0
 12 13  2  0  0  0
 13 14  1  0  0  0
 14 15  2  0  0  0
 15 16  1  0  0  0
 15 17  1  0  0  0
 17 18  2  0  0  0
  7  2  1  0  0  0
 34 30  1  0  0  0
 18 12  1  0  0  0
 28 19  1  0  0  0
 18  7  1  0  0  0
 28 23  1  0  0  0
M  END
> <minimizedAffinity>
-8.54038

> <CNNscore>
0.2064014226

> <CNNaffinity>
6.0223331451

> <CNN_VS>
1.2430181503

> <CNNaffinity_variance>
0.1975649446

$$$$



 35 40  0  0  0  0  0  0  0  0999 V2000
  -12.3845   -0.9752  -23.3991 C   0  0  0  0  0  0  0  0  0  0  0  0
  -10.9342   -1.2064  -23.7045 C   0  0  0  0  0  0  0  0  0  0  0  0
  -10.5906   -2.6664  -23.7273 C   0  0  0  0  0  0  0  0  0  0  0  0
   -9.1288   -2.7938  -24.0388 N   0  0  0  0  0  0  0  0  0  0  0  0
   -8.5690   -1.4125  -24.2085 C   0  0  0  0  0  0  0  0  0  0  0  0
   -7.1436   -1.0721  -24.5285 O   0  0  0  0  0  0  0  0  0  0  0  0
   -9.6848   -0.4315  -24.0018 C   0  0  0  0  0  0  0  0  0  0  0  0
   -8.3620    0.2051  -24.3102 C   0  0  0  0  0  0  0  0  0  0  0  0
   -8.2483    1.6988  -24.3874 N   0  0  0  0  0  0  0  0  0  0  0  0
   -9.4573    2.5559  -24.1563 C   0  0  0  0  0  0  0  0  0  0  0  0
   -9.3436    4.0496  -24.2335 O   0  0  0  0  0  0  0  0  0  0  0  0
  -10.7802    1.9194  -23.8479 C   0  0  0  0  0  0  0  0  0  0  0  0
  -11.9892    2.7765  -23.6168 C   0  0  0  0  0  0  0  0  0  0  0  0
  -13.3120    2.1400  -23.3084 C   0  0  0  0  0  0  0  0  0  0  0  0
  -13.4257    0.6463  -23.2312 C   0  0  0  0  0  0  0  0  0  0  0  0
  -14.7485    0.0098  -22.9228 F   0  0  0  0  0  0  0  0  0  0  0  0
  -12.2166   -0.2108  -23.4623 C   0  0  0  0  0  0  0  0  0  0  0  0
  -10.8939    0.4257  -23.7707 C   0  0  0  0  0  0  0  0  0  0  0  0
   -8.3616   -4.0770  -24.1594 C   0  0  0  0  0  0  0  0  0  0  0  0
   -7.4865   -4.5365  -23.0312 C   0  0  0  0  0  0  0  0  0  0  0  0
   -6.7193   -5.8198  -23.1519 N   0  0  0  0  0  0  0  0  0  0  0  0
   -6.8272   -6.6435  -24.4007 C   0  0  0  0  0  0  0  0  0  0  0  0
   -7.7024   -6.1840  -25.5290 C   0  0  0  0  0  0  0  0  0  0  0  0
   -7.8103   -7.0078  -26.7779 C   0  0  0  0  0  0  0  0  0  0  0  0
   -8.6855   -6.5483  -27.9061 C   0  0  0  0  0  0  0  0  0  0  0  0
   -9.4527   -5.2650  -27.7854 C   0  0  0  0  0  0  0  0  0  0  0  0
   -9.3447   -4.4413  -26.5366 C   0  0  0  0  0  0  0  0  0  0  0  0
   -8.4696   -4.9007  -25.4084 C   0  0  0  0  0  0  0  0  0  0  0  0
   -6.9255    2.3353  -24.6958 C   0  0  0  0  0  0  0  0  0  0  0  0
   -5.8226    2.3031  -23.6796 C   0  0  0  0  0  0  0  0  0  0  0  0
   -4.6609    1.3542  -23.6690 C   0  0  0  0  0  0  0  0  0  0  0  0
   -3.8081    1.6788  -22.4785 C   0  0  0  0  0  0  0  0  0  0  0  0
   -4.4428    2.8282  -21.7532 N   0  0  0  0  0  0  0  0  0  0  0  0
   -5.6878    3.2141  -22.4956 N   0  0  0  0  0  0  0  0  0  0  0  0
   -6.6322    4.3172  -22.1198 C   0  0  0  0  0  0  0  0  0  0  0  0
  2  1  1  0  0  0
  2  3  1  0  0  0
  3  4  1  0  0  0
  4 19  1  0  0  0
 19 20  2  0  0  0
 20 21  1  0  0  0
 21 22  2  0  0  0
 22 23  1  0  0  0
 23 24  2  0  0  0
 24 25  1  0  0  0
 25 26  2  0  0  0
 26 27  1  0  0  0
 27 28  2  0  0  0
  4  5  1  0  0  0
  5  6  2  0  0  0
  5  7  1  0  0  0
  7  8  1  0  0  0
  8  9  1  0  0  0
  9 29  1  0  0  0
 29 30  1  0  0  0
 30 31  2  0  0  0
 31 32  1  0  0  0
 32 33  2  0  0  0
 33 34  1  0  0  0
 34 35  1  0  0  0
  9 10  1  0  0  0
 10 11  2  0  0  0
 10 12  1  0  0  0
 12 13  2  0  0  0
 13 14  1  0  0  0
 14 15  2  0  0  0
 15 16  1  0  0  0
 15 17  1  0  0  0
 17 18  2  0  0  0
  7  2  1  0  0  0
 34 30  1  0  0  0
 18 12  1  0  0  0
 28 19  1  0  0  0
 18  7  1  0  0  0
 28 23  1  0  0  0
M  END
> <minimizedAffinity>
-8.00016

> <CNNscore>
0.1987853497

> <CNNaffinity>
6.2527170181

> <CNN_VS>
1.2429485321

> <CNNaffinity_variance>
0.0745029971

$$$$



 35 40  0  0  0  0  0  0  0  0999 V2000
  -11.7741   -1.6968  -23.1935 C   0  0  0  0  0  0  0  0  0  0  0  0
  -10.2794   -1.6746  -23.3184 C   0  0  0  0  0  0  0  0  0  0  0  0
   -9.6805   -3.0385  -23.1421 C   0  0  0  0  0  0  0  0  0  0  0  0
   -8.1925   -2.9131  -23.2835 N   0  0  0  0  0  0  0  0  0  0  0  0
   -7.8718   -1.4717  -23.5471 C   0  0  0  0  0  0  0  0  0  0  0  0
   -6.5018   -0.8967  -23.7531 O   0  0  0  0  0  0  0  0  0  0  0  0
   -9.1616   -0.7062  -23.5687 C   0  0  0  0  0  0  0  0  0  0  0  0
   -7.9461    0.1398  -23.8068 C   0  0  0  0  0  0  0  0  0  0  0  0
   -8.0924    1.6146  -24.0380 N   0  0  0  0  0  0  0  0  0  0  0  0
   -9.4541    2.2434  -24.0312 C   0  0  0  0  0  0  0  0  0  0  0  0
   -9.6004    3.7183  -24.2625 O   0  0  0  0  0  0  0  0  0  0  0  0
  -10.6697    1.3974  -23.7931 C   0  0  0  0  0  0  0  0  0  0  0  0
  -12.0315    2.0262  -23.7863 C   0  0  0  0  0  0  0  0  0  0  0  0
  -13.2470    1.1802  -23.5483 C   0  0  0  0  0  0  0  0  0  0  0  0
  -13.1008   -0.2946  -23.3170 C   0  0  0  0  0  0  0  0  0  0  0  0
  -14.3164   -1.1406  -23.0789 F   0  0  0  0  0  0  0  0  0  0  0  0
  -11.7390   -0.9234  -23.3238 C   0  0  0  0  0  0  0  0  0  0  0  0
  -10.5235   -0.0774  -23.5619 C   0  0  0  0  0  0  0  0  0  0  0  0
   -7.1995   -4.0325  -23.1795 C   0  0  0  0  0  0  0  0  0  0  0  0
   -6.4076   -4.2179  -21.9192 C   0  0  0  0  0  0  0  0  0  0  0  0
   -5.4146   -5.3373  -21.8153 N   0  0  0  0  0  0  0  0  0  0  0  0
   -5.2135   -6.2713  -22.9716 C   0  0  0  0  0  0  0  0  0  0  0  0
   -6.0055   -6.0859  -24.2320 C   0  0  0  0  0  0  0  0  0  0  0  0
   -5.8044   -7.0200  -25.3884 C   0  0  0  0  0  0  0  0  0  0  0  0
   -6.5964   -6.8344  -26.6487 C   0  0  0  0  0  0  0  0  0  0  0  0
   -7.5893   -5.7150  -26.7526 C   0  0  0  0  0  0  0  0  0  0  0  0
   -7.7904   -4.7811  -25.5962 C   0  0  0  0  0  0  0  0  0  0  0  0
   -6.9985   -4.9665  -24.3360 C   0  0  0  0  0  0  0  0  0  0  0  0
   -6.8767    2.4607  -24.2761 C   0  0  0  0  0  0  0  0  0  0  0  0
   -6.7853    3.8296  -23.6699 C   0  0  0  0  0  0  0  0  0  0  0  0
   -6.8188    4.1490  -22.2046 C   0  0  0  0  0  0  0  0  0  0  0  0
   -6.6984    5.6363  -22.0516 C   0  0  0  0  0  0  0  0  0  0  0  0
   -6.5905    6.2361  -23.4223 N   0  0  0  0  0  0  0  0  0  0  0  0
   -6.6441    5.1195  -24.4224 N   0  0  0  0  0  0  0  0  0  0  0  0
   -6.5697    5.2669  -25.9132 C   0  0  0  0  0  0  0  0  0  0  0  0
  2  1  1  0  0  0
  2  3  1  0  0  0
  3  4  1  0  0  0
  4 19  1  0  0  0
 19 20  2  0  0  0
 20 21  1  0  0  0
 21 22  2  0  0  0
 22 23  1  0  0  0
 23 24  2  0  0  0
 24 25  1  0  0  0
 25 26  2  0  0  0
 26 27  1  0  0  0
 27 28  2  0  0  0
  4  5  1  0  0  0
  5  6  2  0  0  0
  5  7  1  0  0  0
  7  8  1  0  0  0
  8  9  1  0  0  0
  9 29  1  0  0  0
 29 30  1  0  0  0
 30 31  2  0  0  0
 31 32  1  0  0  0
 32 33  2  0  0  0
 33 34  1  0  0  0
 34 35  1  0  0  0
  9 10  1  0  0  0
 10 11  2  0  0  0
 10 12  1  0  0  0
 12 13  2  0  0  0
 13 14  1  0  0  0
 14 15  2  0  0  0
 15 16  1  0  0  0
 15 17  1  0  0  0
 17 18  2  0  0  0
  7  2  1  0  0  0
 34 30  1  0  0  0
 18 12  1  0  0  0
 28 19  1  0  0  0
 18  7  1  0  0  0
 28 23  1  0  0  0
M  END
> <minimizedAffinity>
-8.03652

> <CNNscore>
0.1882402748

> <CNNaffinity>
6.1928024292

> <CNN_VS>
1.1657348871

> <CNNaffinity_variance>
0.2022549659

$$$$



 35 40  0  0  0  0  0  0  0  0999 V2000
   -9.4344   -3.7846  -24.5979 C   0  0  0  0  0  0  0  0  0  0  0  0
   -9.4272   -2.4993  -23.8243 C   0  0  0  0  0  0  0  0  0  0  0  0
  -10.5149   -1.5683  -24.2715 C   0  0  0  0  0  0  0  0  0  0  0  0
  -10.4257   -0.3201  -23.4445 N   0  0  0  0  0  0  0  0  0  0  0  0
   -9.2829   -0.4797  -22.4862 C   0  0  0  0  0  0  0  0  0  0  0  0
   -8.8356    0.5302  -21.4713 O   0  0  0  0  0  0  0  0  0  0  0  0
   -8.6657   -1.8266  -22.7209 C   0  0  0  0  0  0  0  0  0  0  0  0
   -8.0021   -1.0323  -21.6353 C   0  0  0  0  0  0  0  0  0  0  0  0
   -6.8294   -1.6057  -20.8963 N   0  0  0  0  0  0  0  0  0  0  0  0
   -6.3203   -2.9734  -21.2431 C   0  0  0  0  0  0  0  0  0  0  0  0
   -5.1476   -3.5468  -20.5042 O   0  0  0  0  0  0  0  0  0  0  0  0
   -6.9839   -3.7677  -22.3288 C   0  0  0  0  0  0  0  0  0  0  0  0
   -6.4748   -5.1354  -22.6756 C   0  0  0  0  0  0  0  0  0  0  0  0
   -7.1384   -5.9296  -23.7613 C   0  0  0  0  0  0  0  0  0  0  0  0
   -8.3111   -5.3562  -24.5002 C   0  0  0  0  0  0  0  0  0  0  0  0
   -8.9747   -6.1506  -25.5859 F   0  0  0  0  0  0  0  0  0  0  0  0
   -8.8202   -3.9886  -24.1534 C   0  0  0  0  0  0  0  0  0  0  0  0
   -8.1566   -3.1943  -23.0678 C   0  0  0  0  0  0  0  0  0  0  0  0
  -11.3220    0.8775  -23.5562 C   0  0  0  0  0  0  0  0  0  0  0  0
  -12.7333    0.8075  -23.0532 C   0  0  0  0  0  0  0  0  0  0  0  0
  -13.6296    2.0051  -23.1648 N   0  0  0  0  0  0  0  0  0  0  0  0
  -13.1145    3.2726  -23.7795 C   0  0  0  0  0  0  0  0  0  0  0  0
  -11.7030    3.3427  -24.2825 C   0  0  0  0  0  0  0  0  0  0  0  0
  -11.1879    4.6103  -24.8971 C   0  0  0  0  0  0  0  0  0  0  0  0
   -9.7764    4.6802  -25.4001 C   0  0  0  0  0  0  0  0  0  0  0  0
   -8.8802    3.4827  -25.2884 C   0  0  0  0  0  0  0  0  0  0  0  0
   -9.3954    2.2151  -24.6738 C   0  0  0  0  0  0  0  0  0  0  0  0
  -10.8067    2.1451  -24.1708 C   0  0  0  0  0  0  0  0  0  0  0  0
   -6.1658   -0.8114  -19.8106 C   0  0  0  0  0  0  0  0  0  0  0  0
   -4.9342   -0.0104  -20.1132 C   0  0  0  0  0  0  0  0  0  0  0  0
   -4.2013    0.8772  -19.1514 C   0  0  0  0  0  0  0  0  0  0  0  0
   -3.0334    1.4798  -19.8744 C   0  0  0  0  0  0  0  0  0  0  0  0
   -3.0445    0.9645  -21.2832 N   0  0  0  0  0  0  0  0  0  0  0  0
   -4.2192    0.0436  -21.4307 N   0  0  0  0  0  0  0  0  0  0  0  0
   -4.6103   -0.6939  -22.6769 C   0  0  0  0  0  0  0  0  0  0  0  0
  2  1  1  0  0  0
  2  3  1  0  0  0
  3  4  1  0  0  0
  4 19  1  0  0  0
 19 20  2  0  0  0
 20 21  1  0  0  0
 21 22  2  0  0  0
 22 23  1  0  0  0
 23 24  2  0  0  0
 24 25  1  0  0  0
 25 26  2  0  0  0
 26 27  1  0  0  0
 27 28  2  0  0  0
  4  5  1  0  0  0
  5  6  2  0  0  0
  5  7  1  0  0  0
  7  8  1  0  0  0
  8  9  1  0  0  0
  9 29  1  0  0  0
 29 30  1  0  0  0
 30 31  2  0  0  0
 31 32  1  0  0  0
 32 33  2  0  0  0
 33 34  1  0  0  0
 34 35  1  0  0  0
  9 10  1  0  0  0
 10 11  2  0  0  0
 10 12  1  0  0  0
 12 13  2  0  0  0
 13 14  1  0  0  0
 14 15  2  0  0  0
 15 16  1  0  0  0
 15 17  1  0  0  0
 17 18  2  0  0  0
  7  2  1  0  0  0
 34 30  1  0  0  0
 18 12  1  0  0  0
 28 19  1  0  0  0
 18  7  1  0  0  0
 28 23  1  0  0  0
M  END
> <minimizedAffinity>
-9.31922

> <CNNscore>
0.1757069826

> <CNNaffinity>
6.0977678299

> <CNN_VS>
1.0714204311

> <CNNaffinity_variance>
0.1630124152

$$$$



 35 40  0  0  0  0  0  0  0  0999 V2000
  -11.8683   -1.8105  -23.2997 C   0  0  0  0  0  0  0  0  0  0  0  0
  -10.3828   -1.8231  -23.5078 C   0  0  0  0  0  0  0  0  0  0  0  0
   -9.8185   -3.2115  -23.4447 C   0  0  0  0  0  0  0  0  0  0  0  0
   -8.3372   -3.1201  -23.6628 N   0  0  0  0  0  0  0  0  0  0  0  0
   -7.9862   -1.6752  -23.8608 C   0  0  0  0  0  0  0  0  0  0  0  0
   -6.6121   -1.1280  -24.1108 O   0  0  0  0  0  0  0  0  0  0  0  0
   -9.2504   -0.8737  -23.7650 C   0  0  0  0  0  0  0  0  0  0  0  0
   -8.0238   -0.0497  -24.0226 C   0  0  0  0  0  0  0  0  0  0  0  0
   -8.1359    1.4397  -24.1599 N   0  0  0  0  0  0  0  0  0  0  0  0
   -9.4748    2.1053  -24.0396 C   0  0  0  0  0  0  0  0  0  0  0  0
   -9.5869    3.5948  -24.1769 O   0  0  0  0  0  0  0  0  0  0  0  0
  -10.7015    1.2814  -23.7820 C   0  0  0  0  0  0  0  0  0  0  0  0
  -12.0403    1.9470  -23.6617 C   0  0  0  0  0  0  0  0  0  0  0  0
  -13.2670    1.1230  -23.4041 C   0  0  0  0  0  0  0  0  0  0  0  0
  -13.1549   -0.3664  -23.2668 C   0  0  0  0  0  0  0  0  0  0  0  0
  -14.3816   -1.1904  -23.0092 F   0  0  0  0  0  0  0  0  0  0  0  0
  -11.8160   -1.0320  -23.3871 C   0  0  0  0  0  0  0  0  0  0  0  0
  -10.5894   -0.2081  -23.6447 C   0  0  0  0  0  0  0  0  0  0  0  0
   -7.3758   -4.2713  -23.6800 C   0  0  0  0  0  0  0  0  0  0  0  0
   -6.5889   -4.6097  -22.4487 C   0  0  0  0  0  0  0  0  0  0  0  0
   -5.6275   -5.7609  -22.4659 N   0  0  0  0  0  0  0  0  0  0  0  0
   -5.4531   -6.5738  -23.7144 C   0  0  0  0  0  0  0  0  0  0  0  0
   -6.2401   -6.2354  -24.9458 C   0  0  0  0  0  0  0  0  0  0  0  0
   -6.0656   -7.0483  -26.1944 C   0  0  0  0  0  0  0  0  0  0  0  0
   -6.8526   -6.7098  -27.4256 C   0  0  0  0  0  0  0  0  0  0  0  0
   -7.8140   -5.5586  -27.4084 C   0  0  0  0  0  0  0  0  0  0  0  0
   -7.9884   -4.7458  -26.1599 C   0  0  0  0  0  0  0  0  0  0  0  0
   -7.2015   -5.0841  -24.9286 C   0  0  0  0  0  0  0  0  0  0  0  0
   -6.9092    2.2637  -24.4175 C   0  0  0  0  0  0  0  0  0  0  0  0
   -6.8356    3.1396  -25.6329 C   0  0  0  0  0  0  0  0  0  0  0  0
   -6.3284    4.5507  -25.6734 C   0  0  0  0  0  0  0  0  0  0  0  0
   -6.4357    5.0415  -27.0868 C   0  0  0  0  0  0  0  0  0  0  0  0
   -7.0092    3.9337  -27.9198 N   0  0  0  0  0  0  0  0  0  0  0  0
   -7.2564    2.7583  -27.0213 N   0  0  0  0  0  0  0  0  0  0  0  0
   -7.8245    1.4341  -27.4380 C   0  0  0  0  0  0  0  0  0  0  0  0
  2  1  1  0  0  0
  2  3  1  0  0  0
  3  4  1  0  0  0
  4 19  1  0  0  0
 19 20  2  0  0  0
 20 21  1  0  0  0
 21 22  2  0  0  0
 22 23  1  0  0  0
 23 24  2  0  0  0
 24 25  1  0  0  0
 25 26  2  0  0  0
 26 27  1  0  0  0
 27 28  2  0  0  0
  4  5  1  0  0  0
  5  6  2  0  0  0
  5  7  1  0  0  0
  7  8  1  0  0  0
  8  9  1  0  0  0
  9 29  1  0  0  0
 29 30  1  0  0  0
 30 31  2  0  0  0
 31 32  1  0  0  0
 32 33  2  0  0  0
 33 34  1  0  0  0
 34 35  1  0  0  0
  9 10  1  0  0  0
 10 11  2  0  0  0
 10 12  1  0  0  0
 12 13  2  0  0  0
 13 14  1  0  0  0
 14 15  2  0  0  0
 15 16  1  0  0  0
 15 17  1  0  0  0
 17 18  2  0  0  0
  7  2  1  0  0  0
 34 30  1  0  0  0
 18 12  1  0  0  0
 28 19  1  0  0  0
 18  7  1  0  0  0
 28 23  1  0  0  0
M  END
> <minimizedAffinity>
-7.42706

> <CNNscore>
0.1722750664

> <CNNaffinity>
6.0447263718

> <CNN_VS>
1.0413556099

> <CNNaffinity_variance>
0.1720334589

$$$$
