


 33 36  0  0  0  0  0  0  0  0999 V2000
   -6.9808   -0.6114  -23.2808 N   0  0  0  0  0  0  0  0  0  0  0  0
   -8.0987    0.3293  -22.9412 C   0  0  0  0  0  0  0  0  0  0  0  0
   -8.3817    0.6716  -21.5084 O   0  0  0  0  0  0  0  0  0  0  0  0
   -6.9882   -2.5453  -26.7464 C   0  0  0  0  0  0  0  0  0  0  0  0
   -6.1316   -1.6382  -27.5790 C   0  0  0  0  0  0  0  0  0  0  0  0
   -5.5580   -0.3889  -26.9789 C   0  0  0  0  0  0  0  0  0  0  0  0
   -5.8411   -0.0466  -25.5462 C   0  0  0  0  0  0  0  0  0  0  0  0
   -6.6978   -0.9537  -24.7135 C   0  0  0  0  0  0  0  0  0  0  0  0
   -7.2713   -2.2031  -25.3136 C   0  0  0  0  0  0  0  0  0  0  0  0
   -9.0220   -4.0998  -27.1902 C   0  0  0  0  0  0  0  0  0  0  0  0
   -9.9088   -3.1555  -26.4339 O   0  0  0  0  0  0  0  0  0  0  0  0
   -7.5618   -3.7947  -27.3464 N   0  0  0  0  0  0  0  0  0  0  0  0
   -6.9798   -4.4145  -27.8428 H   0  0  0  0  0  0  0  0  0  0  0  0
   -8.7539   -6.5864  -27.8935 C   0  0  0  0  0  0  0  0  0  0  0  0
   -9.5956   -5.3492  -27.7903 C   0  0  0  0  0  0  0  0  0  0  0  0
   -6.1460   -1.2099  -22.1876 C   0  0  0  0  0  0  0  0  0  0  0  0
   -5.1876   -0.3491  -21.4192 C   0  0  0  0  0  0  0  0  0  0  0  0
   -5.3216   -0.2218  -19.9306 C   0  0  0  0  0  0  0  0  0  0  0  0
   -4.3631    0.6389  -19.1622 C   0  0  0  0  0  0  0  0  0  0  0  0
   -3.2707    1.3725  -19.8824 C   0  0  0  0  0  0  0  0  0  0  0  0
   -3.1367    1.2452  -21.3709 C   0  0  0  0  0  0  0  0  0  0  0  0
   -4.0952    0.3844  -22.1393 C   0  0  0  0  0  0  0  0  0  0  0  0
   -8.9335    0.9278  -24.0343 C   0  0  0  0  0  0  0  0  0  0  0  0
  -10.4177    1.0565  -23.8595 C   0  0  0  0  0  0  0  0  0  0  0  0
  -11.0847    2.3843  -24.0641 C   0  0  0  0  0  0  0  0  0  0  0  0
  -12.5689    2.5130  -23.8893 N   0  0  0  0  0  0  0  0  0  0  0  0
  -13.3862    1.3138  -23.5099 C   0  0  0  0  0  0  0  0  0  0  0  0
  -12.7192   -0.0141  -23.3052 C   0  0  0  0  0  0  0  0  0  0  0  0
  -13.5365   -1.2133  -22.9258 C   0  0  0  0  0  0  0  0  0  0  0  0
  -12.8695   -2.5411  -22.7212 C   0  0  0  0  0  0  0  0  0  0  0  0
  -11.3853   -2.6698  -22.8960 C   0  0  0  0  0  0  0  0  0  0  0  0
  -10.5680   -1.4706  -23.2754 C   0  0  0  0  0  0  0  0  0  0  0  0
  -11.2350   -0.1428  -23.4800 C   0  0  0  0  0  0  0  0  0  0  0  0
 14 15  1  0  0  0
 15 10  1  0  0  0
 10 11  2  0  0  0
 10 12  1  0  0  0
 12  4  1  0  0  0
  4  5  2  0  0  0
  5  6  1  0  0  0
  6  7  2  0  0  0
  7  8  1  0  0  0
  8  1  1  0  0  0
  1 16  1  0  0  0
 16 17  1  0  0  0
 17 18  2  0  0  0
 18 19  1  0  0  0
 19 20  2  0  0  0
 20 21  1  0  0  0
 21 22  2  0  0  0
  1  2  1  0  0  0
  2  3  2  0  0  0
  2 23  1  0  0  0
 23 24  1  0  0  0
 24 25  2  0  0  0
 25 26  1  0  0  0
 26 27  2  0  0  0
 27 28  1  0  0  0
 28 29  2  0  0  0
 29 30  1  0  0  0
 30 31  2  0  0  0
 31 32  1  0  0  0
 32 33  2  0  0  0
  8  9  2  0  0  0
  9  4  1  0  0  0
 22 17  1  0  0  0
 33 24  1  0  0  0
 33 28  1  0  0  0
 12 13  1  0  0  0
M  END
> <minimizedAffinity>
-7.15226

> <CNNscore>
0.7113442421

> <CNNaffinity>
6.0270261765

> <CNN_VS>
4.2872905731

> <CNNaffinity_variance>
0.1098174825

$$$$



 33 36  0  0  0  0  0  0  0  0999 V2000
   -8.7830   -1.8167  -23.7500 N   0  0  0  0  0  0  0  0  0  0  0  0
   -7.8256   -1.9240  -22.6002 C   0  0  0  0  0  0  0  0  0  0  0  0
   -6.5324   -2.6654  -22.7678 O   0  0  0  0  0  0  0  0  0  0  0  0
  -11.3665    1.1608  -23.2923 C   0  0  0  0  0  0  0  0  0  0  0  0
  -12.6626    0.4072  -23.2475 C   0  0  0  0  0  0  0  0  0  0  0  0
  -12.6655   -1.0878  -23.3702 C   0  0  0  0  0  0  0  0  0  0  0  0
  -11.3723   -1.8291  -23.5377 C   0  0  0  0  0  0  0  0  0  0  0  0
  -10.0762   -1.0754  -23.5825 C   0  0  0  0  0  0  0  0  0  0  0  0
  -10.0732    0.4196  -23.4598 C   0  0  0  0  0  0  0  0  0  0  0  0
  -12.6413    3.3873  -22.8823 C   0  0  0  0  0  0  0  0  0  0  0  0
  -13.9219    2.6237  -22.7179 O   0  0  0  0  0  0  0  0  0  0  0  0
  -11.3636    2.6558  -23.1695 N   0  0  0  0  0  0  0  0  0  0  0  0
  -10.5231    3.1569  -23.2775 H   0  0  0  0  0  0  0  0  0  0  0  0
  -13.6956    5.6933  -23.4483 C   0  0  0  0  0  0  0  0  0  0  0  0
  -12.6384    4.8822  -22.7596 C   0  0  0  0  0  0  0  0  0  0  0  0
   -8.4471   -2.4507  -25.0673 C   0  0  0  0  0  0  0  0  0  0  0  0
   -8.7507   -3.9010  -25.3007 C   0  0  0  0  0  0  0  0  0  0  0  0
  -10.0069   -4.2984  -26.0177 C   0  0  0  0  0  0  0  0  0  0  0  0
  -10.3105   -5.7487  -26.2511 C   0  0  0  0  0  0  0  0  0  0  0  0
   -9.3579   -6.8016  -25.7675 C   0  0  0  0  0  0  0  0  0  0  0  0
   -8.1017   -6.4043  -25.0505 C   0  0  0  0  0  0  0  0  0  0  0  0
   -7.7981   -4.9540  -24.8171 C   0  0  0  0  0  0  0  0  0  0  0  0
   -8.1614   -1.2900  -21.2829 C   0  0  0  0  0  0  0  0  0  0  0  0
   -7.0633   -0.8548  -20.3584 C   0  0  0  0  0  0  0  0  0  0  0  0
   -6.8876   -1.5318  -19.0315 C   0  0  0  0  0  0  0  0  0  0  0  0
   -5.7895   -1.0965  -18.1070 N   0  0  0  0  0  0  0  0  0  0  0  0
   -4.8672    0.0158  -18.5094 C   0  0  0  0  0  0  0  0  0  0  0  0
   -5.0428    0.6929  -19.8364 C   0  0  0  0  0  0  0  0  0  0  0  0
   -4.1205    1.8052  -20.2388 C   0  0  0  0  0  0  0  0  0  0  0  0
   -4.2962    2.4822  -21.5657 C   0  0  0  0  0  0  0  0  0  0  0  0
   -5.3943    2.0469  -22.4902 C   0  0  0  0  0  0  0  0  0  0  0  0
   -6.3167    0.9346  -22.0878 C   0  0  0  0  0  0  0  0  0  0  0  0
   -6.1409    0.2576  -20.7609 C   0  0  0  0  0  0  0  0  0  0  0  0
 14 15  1  0  0  0
 15 10  1  0  0  0
 10 11  2  0  0  0
 10 12  1  0  0  0
 12  4  1  0  0  0
  4  5  2  0  0  0
  5  6  1  0  0  0
  6  7  2  0  0  0
  7  8  1  0  0  0
  8  1  1  0  0  0
  1 16  1  0  0  0
 16 17  1  0  0  0
 17 18  2  0  0  0
 18 19  1  0  0  0
 19 20  2  0  0  0
 20 21  1  0  0  0
 21 22  2  0  0  0
  1  2  1  0  0  0
  2  3  2  0  0  0
  2 23  1  0  0  0
 23 24  1  0  0  0
 24 25  2  0  0  0
 25 26  1  0  0  0
 26 27  2  0  0  0
 27 28  1  0  0  0
 28 29  2  0  0  0
 29 30  1  0  0  0
 30 31  2  0  0  0
 31 32  1  0  0  0
 32 33  2  0  0  0
  8  9  2  0  0  0
  9  4  1  0  0  0
 22 17  1  0  0  0
 33 24  1  0  0  0
 33 28  1  0  0  0
 12 13  1  0  0  0
M  END
> <minimizedAffinity>
-8.60404

> <CNNscore>
0.6668431759

> <CNNaffinity>
6.4632835388

> <CNN_VS>
4.3099966049

> <CNNaffinity_variance>
0.2916929126

$$$$



 33 36  0  0  0  0  0  0  0  0999 V2000
   -7.7173   -3.8960  -23.1187 N   0  0  0  0  0  0  0  0  0  0  0  0
   -7.2574   -2.7557  -22.2595 C   0  0  0  0  0  0  0  0  0  0  0  0
   -8.1161   -1.5348  -22.1109 O   0  0  0  0  0  0  0  0  0  0  0  0
   -4.9546   -6.3934  -24.4902 C   0  0  0  0  0  0  0  0  0  0  0  0
   -5.1413   -7.5588  -23.5645 C   0  0  0  0  0  0  0  0  0  0  0  0
   -6.1867   -7.5033  -22.4903 C   0  0  0  0  0  0  0  0  0  0  0  0
   -7.0454   -6.2824  -22.3416 C   0  0  0  0  0  0  0  0  0  0  0  0
   -6.8586   -5.1169  -23.2673 C   0  0  0  0  0  0  0  0  0  0  0  0
   -5.8132   -5.1724  -24.3416 C   0  0  0  0  0  0  0  0  0  0  0  0
   -4.1793   -7.1975  -26.8358 C   0  0  0  0  0  0  0  0  0  0  0  0
   -5.4948   -7.8907  -27.0330 O   0  0  0  0  0  0  0  0  0  0  0  0
   -3.9092   -6.4488  -25.5645 N   0  0  0  0  0  0  0  0  0  0  0  0
   -3.0458   -5.9939  -25.4351 H   0  0  0  0  0  0  0  0  0  0  0  0
   -2.9597   -6.0952  -28.8477 C   0  0  0  0  0  0  0  0  0  0  0  0
   -3.1339   -7.2530  -27.9101 C   0  0  0  0  0  0  0  0  0  0  0  0
   -9.0358   -3.8154  -23.8293 C   0  0  0  0  0  0  0  0  0  0  0  0
   -9.2325   -4.5373  -25.1294 C   0  0  0  0  0  0  0  0  0  0  0  0
   -9.3185   -3.7633  -26.4115 C   0  0  0  0  0  0  0  0  0  0  0  0
   -9.5152   -4.4852  -27.7115 C   0  0  0  0  0  0  0  0  0  0  0  0
   -9.6260   -5.9811  -27.7295 C   0  0  0  0  0  0  0  0  0  0  0  0
   -9.5400   -6.7549  -26.4475 C   0  0  0  0  0  0  0  0  0  0  0  0
   -9.3433   -6.0330  -25.1474 C   0  0  0  0  0  0  0  0  0  0  0  0
   -5.9389   -2.8363  -21.5489 C   0  0  0  0  0  0  0  0  0  0  0  0
   -5.6099   -1.8534  -20.4646 C   0  0  0  0  0  0  0  0  0  0  0  0
   -6.0573   -2.1123  -19.0565 C   0  0  0  0  0  0  0  0  0  0  0  0
   -5.7283   -1.1294  -17.9723 N   0  0  0  0  0  0  0  0  0  0  0  0
   -4.9519    0.1125  -18.2961 C   0  0  0  0  0  0  0  0  0  0  0  0
   -4.5045    0.3715  -19.7043 C   0  0  0  0  0  0  0  0  0  0  0  0
   -3.7281    1.6134  -20.0281 C   0  0  0  0  0  0  0  0  0  0  0  0
   -3.2807    1.8723  -21.4362 C   0  0  0  0  0  0  0  0  0  0  0  0
   -3.6097    0.8894  -22.5204 C   0  0  0  0  0  0  0  0  0  0  0  0
   -4.3861   -0.3525  -22.1966 C   0  0  0  0  0  0  0  0  0  0  0  0
   -4.8335   -0.6115  -20.7885 C   0  0  0  0  0  0  0  0  0  0  0  0
 14 15  1  0  0  0
 15 10  1  0  0  0
 10 11  2  0  0  0
 10 12  1  0  0  0
 12  4  1  0  0  0
  4  5  2  0  0  0
  5  6  1  0  0  0
  6  7  2  0  0  0
  7  8  1  0  0  0
  8  1  1  0  0  0
  1 16  1  0  0  0
 16 17  1  0  0  0
 17 18  2  0  0  0
 18 19  1  0  0  0
 19 20  2  0  0  0
 20 21  1  0  0  0
 21 22  2  0  0  0
  1  2  1  0  0  0
  2  3  2  0  0  0
  2 23  1  0  0  0
 23 24  1  0  0  0
 24 25  2  0  0  0
 25 26  1  0  0  0
 26 27  2  0  0  0
 27 28  1  0  0  0
 28 29  2  0  0  0
 29 30  1  0  0  0
 30 31  2  0  0  0
 31 32  1  0  0  0
 32 33  2  0  0  0
  8  9  2  0  0  0
  9  4  1  0  0  0
 22 17  1  0  0  0
 33 24  1  0  0  0
 33 28  1  0  0  0
 12 13  1  0  0  0
M  END
> <minimizedAffinity>
-7.54104

> <CNNscore>
0.6605503559

> <CNNaffinity>
6.0236210823

> <CNN_VS>
3.9789049625

> <CNNaffinity_variance>
0.4836472571

$$$$



 33 36  0  0  0  0  0  0  0  0999 V2000
   -8.5853   -1.8098  -23.4660 N   0  0  0  0  0  0  0  0  0  0  0  0
   -8.0997   -1.2000  -22.1844 C   0  0  0  0  0  0  0  0  0  0  0  0
   -8.7707    0.0238  -21.6347 O   0  0  0  0  0  0  0  0  0  0  0  0
   -5.8430   -4.1708  -25.0957 C   0  0  0  0  0  0  0  0  0  0  0  0
   -6.5726   -5.4812  -25.1151 C   0  0  0  0  0  0  0  0  0  0  0  0
   -7.9730   -5.5679  -24.5848 C   0  0  0  0  0  0  0  0  0  0  0  0
   -8.6439   -4.3441  -24.0351 C   0  0  0  0  0  0  0  0  0  0  0  0
   -7.9144   -3.0336  -24.0157 C   0  0  0  0  0  0  0  0  0  0  0  0
   -6.5139   -2.9469  -24.5460 C   0  0  0  0  0  0  0  0  0  0  0  0
   -4.0893   -4.7493  -26.9232 C   0  0  0  0  0  0  0  0  0  0  0  0
   -5.1365   -5.5011  -27.6900 O   0  0  0  0  0  0  0  0  0  0  0  0
   -4.4426   -4.0841  -25.6260 N   0  0  0  0  0  0  0  0  0  0  0  0
   -3.7553   -3.5906  -25.1227 H   0  0  0  0  0  0  0  0  0  0  0  0
   -1.7703   -5.8432  -27.3422 C   0  0  0  0  0  0  0  0  0  0  0  0
   -2.6888   -4.6626  -27.4535 C   0  0  0  0  0  0  0  0  0  0  0  0
   -9.7418   -1.1958  -24.1978 C   0  0  0  0  0  0  0  0  0  0  0  0
  -11.1317   -1.3283  -23.6497 C   0  0  0  0  0  0  0  0  0  0  0  0
  -11.5011   -2.5243  -22.8231 C   0  0  0  0  0  0  0  0  0  0  0  0
  -12.8911   -2.6568  -22.2750 C   0  0  0  0  0  0  0  0  0  0  0  0
  -13.9117   -1.5933  -22.5535 C   0  0  0  0  0  0  0  0  0  0  0  0
  -13.5423   -0.3974  -23.3802 C   0  0  0  0  0  0  0  0  0  0  0  0
  -12.1523   -0.2649  -23.9282 C   0  0  0  0  0  0  0  0  0  0  0  0
   -6.9433   -1.8140  -21.4525 C   0  0  0  0  0  0  0  0  0  0  0  0
   -6.2563   -1.0498  -20.3598 C   0  0  0  0  0  0  0  0  0  0  0  0
   -6.7745   -1.1219  -18.9540 C   0  0  0  0  0  0  0  0  0  0  0  0
   -6.0875   -0.3577  -17.8613 N   0  0  0  0  0  0  0  0  0  0  0  0
   -4.8823    0.4785  -18.1744 C   0  0  0  0  0  0  0  0  0  0  0  0
   -4.3640    0.5507  -19.5802 C   0  0  0  0  0  0  0  0  0  0  0  0
   -3.1588    1.3869  -19.8932 C   0  0  0  0  0  0  0  0  0  0  0  0
   -2.6406    1.4590  -21.2990 C   0  0  0  0  0  0  0  0  0  0  0  0
   -3.3276    0.6949  -22.3917 C   0  0  0  0  0  0  0  0  0  0  0  0
   -4.5328   -0.1414  -22.0787 C   0  0  0  0  0  0  0  0  0  0  0  0
   -5.0510   -0.2135  -20.6729 C   0  0  0  0  0  0  0  0  0  0  0  0
 14 15  1  0  0  0
 15 10  1  0  0  0
 10 11  2  0  0  0
 10 12  1  0  0  0
 12  4  1  0  0  0
  4  5  2  0  0  0
  5  6  1  0  0  0
  6  7  2  0  0  0
  7  8  1  0  0  0
  8  1  1  0  0  0
  1 16  1  0  0  0
 16 17  1  0  0  0
 17 18  2  0  0  0
 18 19  1  0  0  0
 19 20  2  0  0  0
 20 21  1  0  0  0
 21 22  2  0  0  0
  1  2  1  0  0  0
  2  3  2  0  0  0
  2 23  1  0  0  0
 23 24  1  0  0  0
 24 25  2  0  0  0
 25 26  1  0  0  0
 26 27  2  0  0  0
 27 28  1  0  0  0
 28 29  2  0  0  0
 29 30  1  0  0  0
 30 31  2  0  0  0
 31 32  1  0  0  0
 32 33  2  0  0  0
  8  9  2  0  0  0
  9  4  1  0  0  0
 22 17  1  0  0  0
 33 24  1  0  0  0
 33 28  1  0  0  0
 12 13  1  0  0  0
M  END
> <minimizedAffinity>
-7.50869

> <CNNscore>
0.6507450342

> <CNNaffinity>
6.2087812424

> <CNN_VS>
4.0403337479

> <CNNaffinity_variance>
0.0181224495

$$$$



 33 36  0  0  0  0  0  0  0  0999 V2000
   -8.8280   -1.4531  -23.8759 N   0  0  0  0  0  0  0  0  0  0  0  0
   -7.6968   -1.9700  -23.0374 C   0  0  0  0  0  0  0  0  0  0  0  0
   -7.7378   -3.3716  -22.5044 O   0  0  0  0  0  0  0  0  0  0  0  0
   -9.3840    2.4655  -24.1683 C   0  0  0  0  0  0  0  0  0  0  0  0
   -8.7051    2.7514  -25.4749 C   0  0  0  0  0  0  0  0  0  0  0  0
   -8.0672    1.6359  -26.2486 C   0  0  0  0  0  0  0  0  0  0  0  0
   -8.1081    0.2344  -25.7156 C   0  0  0  0  0  0  0  0  0  0  0  0
   -8.7871   -0.0516  -24.4089 C   0  0  0  0  0  0  0  0  0  0  0  0
   -9.4250    1.0640  -23.6352 C   0  0  0  0  0  0  0  0  0  0  0  0
  -11.4756    3.8945  -23.5911 C   0  0  0  0  0  0  0  0  0  0  0  0
  -12.2913    3.0923  -24.5611 O   0  0  0  0  0  0  0  0  0  0  0  0
  -10.0219    3.5811  -23.3946 N   0  0  0  0  0  0  0  0  0  0  0  0
   -9.4865    4.1076  -22.7579 H   0  0  0  0  0  0  0  0  0  0  0  0
  -13.6079    5.1288  -22.7668 C   0  0  0  0  0  0  0  0  0  0  0  0
  -12.1135    5.0101  -22.8174 C   0  0  0  0  0  0  0  0  0  0  0  0
  -10.0003   -2.3378  -24.1815 C   0  0  0  0  0  0  0  0  0  0  0  0
  -11.3592   -1.9929  -23.6483 C   0  0  0  0  0  0  0  0  0  0  0  0
  -12.0574   -0.7520  -24.1204 C   0  0  0  0  0  0  0  0  0  0  0  0
  -13.4163   -0.4072  -23.5872 C   0  0  0  0  0  0  0  0  0  0  0  0
  -14.0771   -1.3032  -22.5818 C   0  0  0  0  0  0  0  0  0  0  0  0
  -13.3789   -2.5440  -22.1098 C   0  0  0  0  0  0  0  0  0  0  0  0
  -12.0200   -2.8889  -22.6430 C   0  0  0  0  0  0  0  0  0  0  0  0
   -6.5246   -1.0854  -22.7318 C   0  0  0  0  0  0  0  0  0  0  0  0
   -6.2424   -0.6764  -21.3165 C   0  0  0  0  0  0  0  0  0  0  0  0
   -7.2088   -1.0328  -20.2260 C   0  0  0  0  0  0  0  0  0  0  0  0
   -6.9266   -0.6238  -18.8107 N   0  0  0  0  0  0  0  0  0  0  0  0
   -5.6781    0.1415  -18.4859 C   0  0  0  0  0  0  0  0  0  0  0  0
   -4.7117    0.4979  -19.5764 C   0  0  0  0  0  0  0  0  0  0  0  0
   -3.4632    1.2632  -19.2515 C   0  0  0  0  0  0  0  0  0  0  0  0
   -2.4969    1.6195  -20.3420 C   0  0  0  0  0  0  0  0  0  0  0  0
   -2.7791    1.2105  -21.7573 C   0  0  0  0  0  0  0  0  0  0  0  0
   -4.0276    0.4452  -22.0822 C   0  0  0  0  0  0  0  0  0  0  0  0
   -4.9939    0.0889  -20.9917 C   0  0  0  0  0  0  0  0  0  0  0  0
 14 15  1  0  0  0
 15 10  1  0  0  0
 10 11  2  0  0  0
 10 12  1  0  0  0
 12  4  1  0  0  0
  4  5  2  0  0  0
  5  6  1  0  0  0
  6  7  2  0  0  0
  7  8  1  0  0  0
  8  1  1  0  0  0
  1 16  1  0  0  0
 16 17  1  0  0  0
 17 18  2  0  0  0
 18 19  1  0  0  0
 19 20  2  0  0  0
 20 21  1  0  0  0
 21 22  2  0  0  0
  1  2  1  0  0  0
  2  3  2  0  0  0
  2 23  1  0  0  0
 23 24  1  0  0  0
 24 25  2  0  0  0
 25 26  1  0  0  0
 26 27  2  0  0  0
 27 28  1  0  0  0
 28 29  2  0  0  0
 29 30  1  0  0  0
 30 31  2  0  0  0
 31 32  1  0  0  0
 32 33  2  0  0  0
  8  9  2  0  0  0
  9  4  1  0  0  0
 22 17  1  0  0  0
 33 24  1  0  0  0
 33 28  1  0  0  0
 12 13  1  0  0  0
M  END
> <minimizedAffinity>
-7.58997

> <CNNscore>
0.6228890419

> <CNNaffinity>
6.2820196152

> <CNN_VS>
3.9130010605

> <CNNaffinity_variance>
0.0706073195

$$$$



 33 36  0  0  0  0  0  0  0  0999 V2000
   -7.3220   -4.2954  -22.5854 N   0  0  0  0  0  0  0  0  0  0  0  0
   -6.2566   -3.4754  -21.9202 C   0  0  0  0  0  0  0  0  0  0  0  0
   -5.0685   -4.1497  -21.3007 O   0  0  0  0  0  0  0  0  0  0  0  0
  -10.1197   -1.5871  -23.3523 C   0  0  0  0  0  0  0  0  0  0  0  0
  -10.8863   -2.2728  -24.4440 C   0  0  0  0  0  0  0  0  0  0  0  0
  -10.4649   -3.6327  -24.9162 C   0  0  0  0  0  0  0  0  0  0  0  0
   -9.2768   -4.3069  -24.2967 C   0  0  0  0  0  0  0  0  0  0  0  0
   -8.5101   -3.6212  -23.2049 C   0  0  0  0  0  0  0  0  0  0  0  0
   -8.9315   -2.2613  -22.7327 C   0  0  0  0  0  0  0  0  0  0  0  0
  -11.7971    0.3960  -23.4130 C   0  0  0  0  0  0  0  0  0  0  0  0
  -12.6317   -0.3408  -24.4183 O   0  0  0  0  0  0  0  0  0  0  0  0
  -10.5411   -0.2271  -22.8800 N   0  0  0  0  0  0  0  0  0  0  0  0
   -9.9933    0.2564  -22.2202 H   0  0  0  0  0  0  0  0  0  0  0  0
  -13.5181    2.3422  -23.4068 C   0  0  0  0  0  0  0  0  0  0  0  0
  -12.2185    1.7559  -22.9408 C   0  0  0  0  0  0  0  0  0  0  0  0
   -7.1993   -5.7897  -22.6310 C   0  0  0  0  0  0  0  0  0  0  0  0
   -6.3139   -6.4387  -23.6532 C   0  0  0  0  0  0  0  0  0  0  0  0
   -6.7765   -6.5643  -25.0746 C   0  0  0  0  0  0  0  0  0  0  0  0
   -5.8912   -7.2133  -26.0969 C   0  0  0  0  0  0  0  0  0  0  0  0
   -4.5432   -7.7365  -25.6978 C   0  0  0  0  0  0  0  0  0  0  0  0
   -4.0807   -7.6109  -24.2764 C   0  0  0  0  0  0  0  0  0  0  0  0
   -4.9660   -6.9619  -23.2542 C   0  0  0  0  0  0  0  0  0  0  0  0
   -6.3793   -1.9811  -21.8746 C   0  0  0  0  0  0  0  0  0  0  0  0
   -5.9491   -1.2303  -20.6493 C   0  0  0  0  0  0  0  0  0  0  0  0
   -6.6535   -1.4575  -19.3447 C   0  0  0  0  0  0  0  0  0  0  0  0
   -6.2233   -0.7067  -18.1194 N   0  0  0  0  0  0  0  0  0  0  0  0
   -5.0887    0.2712  -18.1988 C   0  0  0  0  0  0  0  0  0  0  0  0
   -4.3842    0.4984  -19.5035 C   0  0  0  0  0  0  0  0  0  0  0  0
   -3.2497    1.4763  -19.5829 C   0  0  0  0  0  0  0  0  0  0  0  0
   -2.5452    1.7034  -20.8875 C   0  0  0  0  0  0  0  0  0  0  0  0
   -2.9754    0.9526  -22.1128 C   0  0  0  0  0  0  0  0  0  0  0  0
   -4.1100   -0.0253  -22.0334 C   0  0  0  0  0  0  0  0  0  0  0  0
   -4.8144   -0.2524  -20.7288 C   0  0  0  0  0  0  0  0  0  0  0  0
 14 15  1  0  0  0
 15 10  1  0  0  0
 10 11  2  0  0  0
 10 12  1  0  0  0
 12  4  1  0  0  0
  4  5  2  0  0  0
  5  6  1  0  0  0
  6  7  2  0  0  0
  7  8  1  0  0  0
  8  1  1  0  0  0
  1 16  1  0  0  0
 16 17  1  0  0  0
 17 18  2  0  0  0
 18 19  1  0  0  0
 19 20  2  0  0  0
 20 21  1  0  0  0
 21 22  2  0  0  0
  1  2  1  0  0  0
  2  3  2  0  0  0
  2 23  1  0  0  0
 23 24  1  0  0  0
 24 25  2  0  0  0
 25 26  1  0  0  0
 26 27  2  0  0  0
 27 28  1  0  0  0
 28 29  2  0  0  0
 29 30  1  0  0  0
 30 31  2  0  0  0
 31 32  1  0  0  0
 32 33  2  0  0  0
  8  9  2  0  0  0
  9  4  1  0  0  0
 22 17  1  0  0  0
 33 24  1  0  0  0
 33 28  1  0  0  0
 12 13  1  0  0  0
M  END
> <minimizedAffinity>
-8.13855

> <CNNscore>
0.5855044127

> <CNNaffinity>
6.1143827438

> <CNN_VS>
3.5799980164

> <CNNaffinity_variance>
0.6444925666

$$$$



 33 36  0  0  0  0  0  0  0  0999 V2000
  -10.1573   -2.0870  -23.2775 N   0  0  0  0  0  0  0  0  0  0  0  0
  -10.8288   -0.7881  -23.6123 C   0  0  0  0  0  0  0  0  0  0  0  0
  -12.0838   -0.7825  -24.4340 O   0  0  0  0  0  0  0  0  0  0  0  0
   -6.5995   -3.1445  -21.8728 C   0  0  0  0  0  0  0  0  0  0  0  0
   -6.3926   -2.1039  -20.8125 C   0  0  0  0  0  0  0  0  0  0  0  0
   -7.4407   -1.0577  -20.5738 C   0  0  0  0  0  0  0  0  0  0  0  0
   -8.6955   -1.0520  -21.3955 C   0  0  0  0  0  0  0  0  0  0  0  0
   -8.9025   -2.0927  -22.4559 C   0  0  0  0  0  0  0  0  0  0  0  0
   -7.8544   -3.1389  -22.6945 C   0  0  0  0  0  0  0  0  0  0  0  0
   -5.9563   -5.5896  -22.4712 C   0  0  0  0  0  0  0  0  0  0  0  0
   -7.4092   -5.9421  -22.5923 O   0  0  0  0  0  0  0  0  0  0  0  0
   -5.5514   -4.1908  -22.1114 N   0  0  0  0  0  0  0  0  0  0  0  0
   -4.5978   -3.9594  -22.0319 H   0  0  0  0  0  0  0  0  0  0  0  0
   -5.0694   -7.6162  -23.8336 C   0  0  0  0  0  0  0  0  0  0  0  0
   -4.9083   -6.6358  -22.7098 C   0  0  0  0  0  0  0  0  0  0  0  0
  -10.7409   -3.3803  -23.7645 C   0  0  0  0  0  0  0  0  0  0  0  0
  -10.2695   -3.9758  -25.0580 C   0  0  0  0  0  0  0  0  0  0  0  0
   -9.3209   -3.2120  -25.9337 C   0  0  0  0  0  0  0  0  0  0  0  0
   -8.8495   -3.8075  -27.2272 C   0  0  0  0  0  0  0  0  0  0  0  0
   -9.3268   -5.1669  -27.6450 C   0  0  0  0  0  0  0  0  0  0  0  0
  -10.2754   -5.9306  -26.7694 C   0  0  0  0  0  0  0  0  0  0  0  0
  -10.7468   -5.3351  -25.4758 C   0  0  0  0  0  0  0  0  0  0  0  0
  -10.2453    0.5051  -23.1254 C   0  0  0  0  0  0  0  0  0  0  0  0
  -10.3666    1.7445  -23.9616 C   0  0  0  0  0  0  0  0  0  0  0  0
   -9.4556    1.9493  -25.1355 C   0  0  0  0  0  0  0  0  0  0  0  0
   -9.5768    3.1887  -25.9717 N   0  0  0  0  0  0  0  0  0  0  0  0
  -10.6090    4.2233  -25.6339 C   0  0  0  0  0  0  0  0  0  0  0  0
  -11.5200    4.0186  -24.4599 C   0  0  0  0  0  0  0  0  0  0  0  0
  -12.5522    5.0532  -24.1222 C   0  0  0  0  0  0  0  0  0  0  0  0
  -13.4631    4.8484  -22.9482 C   0  0  0  0  0  0  0  0  0  0  0  0
  -13.3419    3.6090  -22.1120 C   0  0  0  0  0  0  0  0  0  0  0  0
  -12.3097    2.5744  -22.4498 C   0  0  0  0  0  0  0  0  0  0  0  0
  -11.3988    2.7792  -23.6238 C   0  0  0  0  0  0  0  0  0  0  0  0
 14 15  1  0  0  0
 15 10  1  0  0  0
 10 11  2  0  0  0
 10 12  1  0  0  0
 12  4  1  0  0  0
  4  5  2  0  0  0
  5  6  1  0  0  0
  6  7  2  0  0  0
  7  8  1  0  0  0
  8  1  1  0  0  0
  1 16  1  0  0  0
 16 17  1  0  0  0
 17 18  2  0  0  0
 18 19  1  0  0  0
 19 20  2  0  0  0
 20 21  1  0  0  0
 21 22  2  0  0  0
  1  2  1  0  0  0
  2  3  2  0  0  0
  2 23  1  0  0  0
 23 24  1  0  0  0
 24 25  2  0  0  0
 25 26  1  0  0  0
 26 27  2  0  0  0
 27 28  1  0  0  0
 28 29  2  0  0  0
 29 30  1  0  0  0
 30 31  2  0  0  0
 31 32  1  0  0  0
 32 33  2  0  0  0
  8  9  2  0  0  0
  9  4  1  0  0  0
 22 17  1  0  0  0
 33 24  1  0  0  0
 33 28  1  0  0  0
 12 13  1  0  0  0
M  END
> <minimizedAffinity>
-7.45208

> <CNNscore>
0.4530301988

> <CNNaffinity>
5.8864364624

> <CNN_VS>
2.6667335033

> <CNNaffinity_variance>
0.4102172256

$$$$



 33 36  0  0  0  0  0  0  0  0999 V2000
   -8.6503   -2.9613  -22.8394 N   0  0  0  0  0  0  0  0  0  0  0  0
   -7.4367   -2.3700  -22.1857 C   0  0  0  0  0  0  0  0  0  0  0  0
   -6.1831   -3.1837  -22.0561 O   0  0  0  0  0  0  0  0  0  0  0  0
  -11.0708    0.1416  -23.3527 C   0  0  0  0  0  0  0  0  0  0  0  0
  -12.4109   -0.5207  -23.2285 C   0  0  0  0  0  0  0  0  0  0  0  0
  -12.4975   -1.9965  -22.9745 C   0  0  0  0  0  0  0  0  0  0  0  0
  -11.2440   -2.8100  -22.8449 C   0  0  0  0  0  0  0  0  0  0  0  0
   -9.9038   -2.1478  -22.9691 C   0  0  0  0  0  0  0  0  0  0  0  0
   -9.8172   -0.6720  -23.2230 C   0  0  0  0  0  0  0  0  0  0  0  0
  -10.0620    2.1432  -24.6664 C   0  0  0  0  0  0  0  0  0  0  0  0
   -9.2266    1.1932  -25.4723 O   0  0  0  0  0  0  0  0  0  0  0  0
  -10.9841    1.6174  -23.6066 N   0  0  0  0  0  0  0  0  0  0  0  0
  -11.5325    2.2409  -23.0777 H   0  0  0  0  0  0  0  0  0  0  0  0
  -10.9509    4.5513  -24.2652 C   0  0  0  0  0  0  0  0  0  0  0  0
   -9.9754    3.6190  -24.9204 C   0  0  0  0  0  0  0  0  0  0  0  0
   -8.6105   -4.3663  -23.3635 C   0  0  0  0  0  0  0  0  0  0  0  0
   -8.8601   -4.6313  -24.8187 C   0  0  0  0  0  0  0  0  0  0  0  0
   -9.0699   -6.0365  -25.2998 C   0  0  0  0  0  0  0  0  0  0  0  0
   -9.3195   -6.3016  -26.7550 C   0  0  0  0  0  0  0  0  0  0  0  0
   -9.3594   -5.1614  -27.7289 C   0  0  0  0  0  0  0  0  0  0  0  0
   -9.1496   -3.7563  -27.2477 C   0  0  0  0  0  0  0  0  0  0  0  0
   -8.8999   -3.4913  -25.7926 C   0  0  0  0  0  0  0  0  0  0  0  0
   -7.4765   -0.9651  -21.6617 C   0  0  0  0  0  0  0  0  0  0  0  0
   -6.6080   -0.5717  -20.5037 C   0  0  0  0  0  0  0  0  0  0  0  0
   -6.9011   -1.1028  -19.1319 C   0  0  0  0  0  0  0  0  0  0  0  0
   -6.0326   -0.7094  -17.9739 N   0  0  0  0  0  0  0  0  0  0  0  0
   -4.8709    0.2152  -18.1878 C   0  0  0  0  0  0  0  0  0  0  0  0
   -4.5778    0.7464  -19.5597 C   0  0  0  0  0  0  0  0  0  0  0  0
   -3.4161    1.6709  -19.7735 C   0  0  0  0  0  0  0  0  0  0  0  0
   -3.1230    2.2020  -21.1453 C   0  0  0  0  0  0  0  0  0  0  0  0
   -3.9915    1.8086  -22.3033 C   0  0  0  0  0  0  0  0  0  0  0  0
   -5.1532    0.8840  -22.0895 C   0  0  0  0  0  0  0  0  0  0  0  0
   -5.4463    0.3529  -20.7176 C   0  0  0  0  0  0  0  0  0  0  0  0
 14 15  1  0  0  0
 15 10  1  0  0  0
 10 11  2  0  0  0
 10 12  1  0  0  0
 12  4  1  0  0  0
  4  5  2  0  0  0
  5  6  1  0  0  0
  6  7  2  0  0  0
  7  8  1  0  0  0
  8  1  1  0  0  0
  1 16  1  0  0  0
 16 17  1  0  0  0
 17 18  2  0  0  0
 18 19  1  0  0  0
 19 20  2  0  0  0
 20 21  1  0  0  0
 21 22  2  0  0  0
  1  2  1  0  0  0
  2  3  2  0  0  0
  2 23  1  0  0  0
 23 24  1  0  0  0
 24 25  2  0  0  0
 25 26  1  0  0  0
 26 27  2  0  0  0
 27 28  1  0  0  0
 28 29  2  0  0  0
 29 30  1  0  0  0
 30 31  2  0  0  0
 31 32  1  0  0  0
 32 33  2  0  0  0
  8  9  2  0  0  0
  9  4  1  0  0  0
 22 17  1  0  0  0
 33 24  1  0  0  0
 33 28  1  0  0  0
 12 13  1  0  0  0
M  END
> <minimizedAffinity>
-7.64358

> <CNNscore>
0.4190667570

> <CNNaffinity>
6.0285010338

> <CNN_VS>
2.5263442993

> <CNNaffinity_variance>
0.2278722227

$$$$



 33 36  0  0  0  0  0  0  0  0999 V2000
   -7.0932   -1.7577  -21.3280 N   0  0  0  0  0  0  0  0  0  0  0  0
   -8.1077   -0.8426  -21.9473 C   0  0  0  0  0  0  0  0  0  0  0  0
   -8.2942    0.5448  -21.4083 O   0  0  0  0  0  0  0  0  0  0  0  0
   -7.6749   -5.0748  -23.4278 C   0  0  0  0  0  0  0  0  0  0  0  0
   -6.5336   -5.9198  -22.9448 C   0  0  0  0  0  0  0  0  0  0  0  0
   -5.5789   -5.3775  -21.9229 C   0  0  0  0  0  0  0  0  0  0  0  0
   -5.7654   -3.9902  -21.3840 C   0  0  0  0  0  0  0  0  0  0  0  0
   -6.9067   -3.1451  -21.8670 C   0  0  0  0  0  0  0  0  0  0  0  0
   -7.8615   -3.6874  -22.8889 C   0  0  0  0  0  0  0  0  0  0  0  0
   -8.1132   -6.1282  -25.7619 C   0  0  0  0  0  0  0  0  0  0  0  0
   -6.6419   -6.0970  -26.0522 O   0  0  0  0  0  0  0  0  0  0  0  0
   -8.6297   -5.6171  -24.4497 N   0  0  0  0  0  0  0  0  0  0  0  0
   -9.5954   -5.6376  -24.2591 H   0  0  0  0  0  0  0  0  0  0  0  0
  -10.5143   -6.2750  -26.7433 C   0  0  0  0  0  0  0  0  0  0  0  0
   -9.0680   -6.6705  -26.7838 C   0  0  0  0  0  0  0  0  0  0  0  0
   -6.2653   -1.2854  -20.1698 C   0  0  0  0  0  0  0  0  0  0  0  0
   -5.1020   -0.3679  -20.4042 C   0  0  0  0  0  0  0  0  0  0  0  0
   -4.4620   -0.2993  -21.7591 C   0  0  0  0  0  0  0  0  0  0  0  0
   -3.2987    0.6182  -21.9935 C   0  0  0  0  0  0  0  0  0  0  0  0
   -2.7755    1.4672  -20.8730 C   0  0  0  0  0  0  0  0  0  0  0  0
   -3.4155    1.3986  -19.5182 C   0  0  0  0  0  0  0  0  0  0  0  0
   -4.5788    0.4811  -19.2838 C   0  0  0  0  0  0  0  0  0  0  0  0
   -8.9356   -1.3149  -23.1055 C   0  0  0  0  0  0  0  0  0  0  0  0
  -10.4311   -1.2137  -23.0491 C   0  0  0  0  0  0  0  0  0  0  0  0
  -11.2501   -2.4113  -22.6685 C   0  0  0  0  0  0  0  0  0  0  0  0
  -12.7456   -2.3101  -22.6120 N   0  0  0  0  0  0  0  0  0  0  0  0
  -13.4222   -1.0112  -22.9361 C   0  0  0  0  0  0  0  0  0  0  0  0
  -12.6032    0.1865  -23.3167 C   0  0  0  0  0  0  0  0  0  0  0  0
  -13.2798    1.4854  -23.6408 C   0  0  0  0  0  0  0  0  0  0  0  0
  -12.4608    2.6831  -24.0214 C   0  0  0  0  0  0  0  0  0  0  0  0
  -10.9653    2.5819  -24.0779 C   0  0  0  0  0  0  0  0  0  0  0  0
  -10.2888    1.2830  -23.7538 C   0  0  0  0  0  0  0  0  0  0  0  0
  -11.1077    0.0853  -23.3732 C   0  0  0  0  0  0  0  0  0  0  0  0
 14 15  1  0  0  0
 15 10  1  0  0  0
 10 11  2  0  0  0
 10 12  1  0  0  0
 12  4  1  0  0  0
  4  5  2  0  0  0
  5  6  1  0  0  0
  6  7  2  0  0  0
  7  8  1  0  0  0
  8  1  1  0  0  0
  1 16  1  0  0  0
 16 17  1  0  0  0
 17 18  2  0  0  0
 18 19  1  0  0  0
 19 20  2  0  0  0
 20 21  1  0  0  0
 21 22  2  0  0  0
  1  2  1  0  0  0
  2  3  2  0  0  0
  2 23  1  0  0  0
 23 24  1  0  0  0
 24 25  2  0  0  0
 25 26  1  0  0  0
 26 27  2  0  0  0
 27 28  1  0  0  0
 28 29  2  0  0  0
 29 30  1  0  0  0
 30 31  2  0  0  0
 31 32  1  0  0  0
 32 33  2  0  0  0
  8  9  2  0  0  0
  9  4  1  0  0  0
 22 17  1  0  0  0
 33 24  1  0  0  0
 33 28  1  0  0  0
 12 13  1  0  0  0
M  END
> <minimizedAffinity>
-7.93226

> <CNNscore>
0.4041937888

> <CNNaffinity>
6.0709590912

> <CNN_VS>
2.4538440704

> <CNNaffinity_variance>
0.3274968266

$$$$
