


 33 36  0  0  0  0  0  0  0  0999 V2000
    8.8023   -0.6894   23.2362 N   0  0  0  0  0  0  0  0  0  0  0  0
    7.9012   -0.9908   22.0755 C   0  0  0  0  0  0  0  0  0  0  0  0
    6.7770   -1.9713   22.2336 O   0  0  0  0  0  0  0  0  0  0  0  0
   10.7777    2.7444   22.9976 C   0  0  0  0  0  0  0  0  0  0  0  0
   12.1748    2.2519   22.7622 C   0  0  0  0  0  0  0  0  0  0  0  0
   12.4478    0.7790   22.6849 C   0  0  0  0  0  0  0  0  0  0  0  0
   11.3237   -0.2015   22.8429 C   0  0  0  0  0  0  0  0  0  0  0  0
    9.9264    0.2910   23.0782 C   0  0  0  0  0  0  0  0  0  0  0  0
    9.6535    1.7639   23.1556 C   0  0  0  0  0  0  0  0  0  0  0  0
   11.4827    5.1930   22.4906 C   0  0  0  0  0  0  0  0  0  0  0  0
   12.7337    4.6958   21.8289 O   0  0  0  0  0  0  0  0  0  0  0  0
   10.5047    4.2173   23.0749 N   0  0  0  0  0  0  0  0  0  0  0  0
    9.6836    4.5436   23.5092 H   0  0  0  0  0  0  0  0  0  0  0  0
   12.1407    7.6371   21.9047 C   0  0  0  0  0  0  0  0  0  0  0  0
   11.2097    6.6660   22.5679 C   0  0  0  0  0  0  0  0  0  0  0  0
    8.5792   -1.3686   24.5550 C   0  0  0  0  0  0  0  0  0  0  0  0
    9.6969   -2.1282   25.2060 C   0  0  0  0  0  0  0  0  0  0  0  0
    9.6051   -3.6182   25.3531 C   0  0  0  0  0  0  0  0  0  0  0  0
   10.7227   -4.3778   26.0041 C   0  0  0  0  0  0  0  0  0  0  0  0
   11.9323   -3.6475   26.5079 C   0  0  0  0  0  0  0  0  0  0  0  0
   12.0240   -2.1576   26.3607 C   0  0  0  0  0  0  0  0  0  0  0  0
   10.9064   -1.3979   25.7097 C   0  0  0  0  0  0  0  0  0  0  0  0
    8.1243   -0.3117   20.7568 C   0  0  0  0  0  0  0  0  0  0  0  0
    6.9515    0.0939   19.9142 C   0  0  0  0  0  0  0  0  0  0  0  0
    6.6843   -0.6054   18.6144 C   0  0  0  0  0  0  0  0  0  0  0  0
    5.5115   -0.1998   17.7717 N   0  0  0  0  0  0  0  0  0  0  0  0
    4.6058    0.9050   18.2289 C   0  0  0  0  0  0  0  0  0  0  0  0
    4.8729    1.6043   19.5288 C   0  0  0  0  0  0  0  0  0  0  0  0
    3.9673    2.7092   19.9860 C   0  0  0  0  0  0  0  0  0  0  0  0
    4.2344    3.4084   21.2858 C   0  0  0  0  0  0  0  0  0  0  0  0
    5.4072    3.0029   22.1285 C   0  0  0  0  0  0  0  0  0  0  0  0
    6.3129    1.8981   21.6713 C   0  0  0  0  0  0  0  0  0  0  0  0
    6.0458    1.1988   20.3715 C   0  0  0  0  0  0  0  0  0  0  0  0
 14 15  1  0  0  0
 15 10  1  0  0  0
 10 11  2  0  0  0
 10 12  1  0  0  0
 12  4  1  0  0  0
  4  5  2  0  0  0
  5  6  1  0  0  0
  6  7  2  0  0  0
  7  8  1  0  0  0
  8  1  1  0  0  0
  1 16  1  0  0  0
 16 17  1  0  0  0
 17 18  2  0  0  0
 18 19  1  0  0  0
 19 20  2  0  0  0
 20 21  1  0  0  0
 21 22  2  0  0  0
  1  2  1  0  0  0
  2  3  2  0  0  0
  2 23  1  0  0  0
 23 24  1  0  0  0
 24 25  2  0  0  0
 25 26  1  0  0  0
 26 27  2  0  0  0
 27 28  1  0  0  0
 28 29  2  0  0  0
 29 30  1  0  0  0
 30 31  2  0  0  0
 31 32  1  0  0  0
 32 33  2  0  0  0
  8  9  2  0  0  0
  9  4  1  0  0  0
 22 17  1  0  0  0
 33 24  1  0  0  0
 33 28  1  0  0  0
 12 13  1  0  0  0
M  END
> <minimizedAffinity>
-9.16247

> <CNNscore>
0.7781594992

> <CNNaffinity>
6.8144330978

> <CNN_VS>
5.3027157784

> <CNNaffinity_variance>
0.0280262884

$$$$



 33 36  0  0  0  0  0  0  0  0999 V2000
    8.7310   -0.2481   22.2790 N   0  0  0  0  0  0  0  0  0  0  0  0
    8.1836   -1.0077   23.4510 C   0  0  0  0  0  0  0  0  0  0  0  0
    7.1273   -2.0518   23.2408 O   0  0  0  0  0  0  0  0  0  0  0  0
   10.4543    3.2807   22.8515 C   0  0  0  0  0  0  0  0  0  0  0  0
   11.8998    2.8842   22.9095 C   0  0  0  0  0  0  0  0  0  0  0  0
   12.2890    1.4436   22.7573 C   0  0  0  0  0  0  0  0  0  0  0  0
   11.2328    0.3995   22.5471 C   0  0  0  0  0  0  0  0  0  0  0  0
    9.7872    0.7960   22.4892 C   0  0  0  0  0  0  0  0  0  0  0  0
    9.3980    2.2366   22.6414 C   0  0  0  0  0  0  0  0  0  0  0  0
   11.0272    5.8035   22.6125 C   0  0  0  0  0  0  0  0  0  0  0  0
   12.3786    5.4451   22.0690 O   0  0  0  0  0  0  0  0  0  0  0  0
   10.0651    4.7213   23.0037 N   0  0  0  0  0  0  0  0  0  0  0  0
    9.1781    4.9566   23.3604 H   0  0  0  0  0  0  0  0  0  0  0  0
    9.5996    7.6380   23.7729 C   0  0  0  0  0  0  0  0  0  0  0  0
   10.6380    7.2442   22.7646 C   0  0  0  0  0  0  0  0  0  0  0  0
    8.2221   -0.5326   20.8969 C   0  0  0  0  0  0  0  0  0  0  0  0
    6.9610    0.1196   20.4130 C   0  0  0  0  0  0  0  0  0  0  0  0
    6.1448    0.9609   21.3491 C   0  0  0  0  0  0  0  0  0  0  0  0
    4.8837    1.6131   20.8651 C   0  0  0  0  0  0  0  0  0  0  0  0
    4.4388    1.4240   19.4451 C   0  0  0  0  0  0  0  0  0  0  0  0
    5.2549    0.5828   18.5091 C   0  0  0  0  0  0  0  0  0  0  0  0
    6.5160   -0.0694   18.9931 C   0  0  0  0  0  0  0  0  0  0  0  0
    8.6924   -0.7231   24.8330 C   0  0  0  0  0  0  0  0  0  0  0  0
    9.2340   -1.8385   25.6772 C   0  0  0  0  0  0  0  0  0  0  0  0
    8.2941   -2.7426   26.4183 C   0  0  0  0  0  0  0  0  0  0  0  0
    8.8357   -3.8579   27.2625 N   0  0  0  0  0  0  0  0  0  0  0  0
   10.3171   -4.0691   27.3657 C   0  0  0  0  0  0  0  0  0  0  0  0
   11.2571   -3.1650   26.6246 C   0  0  0  0  0  0  0  0  0  0  0  0
   12.7385   -3.3762   26.7278 C   0  0  0  0  0  0  0  0  0  0  0  0
   13.6784   -2.4721   25.9868 C   0  0  0  0  0  0  0  0  0  0  0  0
   13.1368   -1.3567   25.1426 C   0  0  0  0  0  0  0  0  0  0  0  0
   11.6553   -1.1455   25.0394 C   0  0  0  0  0  0  0  0  0  0  0  0
   10.7155   -2.0497   25.7804 C   0  0  0  0  0  0  0  0  0  0  0  0
 14 15  1  0  0  0
 15 10  1  0  0  0
 10 11  2  0  0  0
 10 12  1  0  0  0
 12  4  1  0  0  0
  4  5  2  0  0  0
  5  6  1  0  0  0
  6  7  2  0  0  0
  7  8  1  0  0  0
  8  1  1  0  0  0
  1 16  1  0  0  0
 16 17  1  0  0  0
 17 18  2  0  0  0
 18 19  1  0  0  0
 19 20  2  0  0  0
 20 21  1  0  0  0
 21 22  2  0  0  0
  1  2  1  0  0  0
  2  3  2  0  0  0
  2 23  1  0  0  0
 23 24  1  0  0  0
 24 25  2  0  0  0
 25 26  1  0  0  0
 26 27  2  0  0  0
 27 28  1  0  0  0
 28 29  2  0  0  0
 29 30  1  0  0  0
 30 31  2  0  0  0
 31 32  1  0  0  0
 32 33  2  0  0  0
  8  9  2  0  0  0
  9  4  1  0  0  0
 22 17  1  0  0  0
 33 24  1  0  0  0
 33 28  1  0  0  0
 12 13  1  0  0  0
M  END
> <minimizedAffinity>
-8.64407

> <CNNscore>
0.7069928646

> <CNNaffinity>
6.8068070412

> <CNN_VS>
4.8123641014

> <CNNaffinity_variance>
0.0267210454

$$$$



 33 36  0  0  0  0  0  0  0  0999 V2000
    8.2052   -0.8901   23.4042 N   0  0  0  0  0  0  0  0  0  0  0  0
    7.5154   -0.1655   22.2865 C   0  0  0  0  0  0  0  0  0  0  0  0
    7.8244    1.2791   22.0259 O   0  0  0  0  0  0  0  0  0  0  0  0
    6.3369   -4.3913   23.3672 C   0  0  0  0  0  0  0  0  0  0  0  0
    7.2784   -5.2237   24.1863 C   0  0  0  0  0  0  0  0  0  0  0  0
    8.5288   -4.6115   24.7446 C   0  0  0  0  0  0  0  0  0  0  0  0
    8.8377   -3.1670   24.4840 C   0  0  0  0  0  0  0  0  0  0  0  0
    7.8962   -2.3346   23.6649 C   0  0  0  0  0  0  0  0  0  0  0  0
    6.6459   -2.9468   23.1065 C   0  0  0  0  0  0  0  0  0  0  0  0
    4.1941   -5.8240   23.6921 C   0  0  0  0  0  0  0  0  0  0  0  0
    4.5520   -6.0324   25.1338 O   0  0  0  0  0  0  0  0  0  0  0  0
    5.0866   -5.0035   22.8088 N   0  0  0  0  0  0  0  0  0  0  0  0
    4.8516   -4.8667   21.8626 H   0  0  0  0  0  0  0  0  0  0  0  0
    1.6673   -6.3839   23.9199 C   0  0  0  0  0  0  0  0  0  0  0  0
    2.9437   -6.4362   23.1337 C   0  0  0  0  0  0  0  0  0  0  0  0
    9.2039   -0.1702   24.2611 C   0  0  0  0  0  0  0  0  0  0  0  0
   10.5856   -0.7285   24.4327 C   0  0  0  0  0  0  0  0  0  0  0  0
   11.4699   -0.9226   23.2367 C   0  0  0  0  0  0  0  0  0  0  0  0
   12.8515   -1.4808   23.4082 C   0  0  0  0  0  0  0  0  0  0  0  0
   13.3488   -1.8451   24.7758 C   0  0  0  0  0  0  0  0  0  0  0  0
   12.4645   -1.6510   25.9717 C   0  0  0  0  0  0  0  0  0  0  0  0
   11.0829   -1.0928   25.8001 C   0  0  0  0  0  0  0  0  0  0  0  0
    6.5167   -0.8853   21.4296 C   0  0  0  0  0  0  0  0  0  0  0  0
    5.9297   -0.2043   20.2289 C   0  0  0  0  0  0  0  0  0  0  0  0
    6.5709   -0.3721   18.8833 C   0  0  0  0  0  0  0  0  0  0  0  0
    5.9839    0.3089   17.6826 N   0  0  0  0  0  0  0  0  0  0  0  0
    4.7557    1.1577   17.8275 C   0  0  0  0  0  0  0  0  0  0  0  0
    4.1144    1.3255   19.1731 C   0  0  0  0  0  0  0  0  0  0  0  0
    2.8863    2.1743   19.3180 C   0  0  0  0  0  0  0  0  0  0  0  0
    2.2451    2.3421   20.6636 C   0  0  0  0  0  0  0  0  0  0  0  0
    2.8321    1.6611   21.8643 C   0  0  0  0  0  0  0  0  0  0  0  0
    4.0603    0.8123   21.7194 C   0  0  0  0  0  0  0  0  0  0  0  0
    4.7015    0.6445   20.3738 C   0  0  0  0  0  0  0  0  0  0  0  0
 14 15  1  0  0  0
 15 10  1  0  0  0
 10 11  2  0  0  0
 10 12  1  0  0  0
 12  4  1  0  0  0
  4  5  2  0  0  0
  5  6  1  0  0  0
  6  7  2  0  0  0
  7  8  1  0  0  0
  8  1  1  0  0  0
  1 16  1  0  0  0
 16 17  1  0  0  0
 17 18  2  0  0  0
 18 19  1  0  0  0
 19 20  2  0  0  0
 20 21  1  0  0  0
 21 22  2  0  0  0
  1  2  1  0  0  0
  2  3  2  0  0  0
  2 23  1  0  0  0
 23 24  1  0  0  0
 24 25  2  0  0  0
 25 26  1  0  0  0
 26 27  2  0  0  0
 27 28  1  0  0  0
 28 29  2  0  0  0
 29 30  1  0  0  0
 30 31  2  0  0  0
 31 32  1  0  0  0
 32 33  2  0  0  0
  8  9  2  0  0  0
  9  4  1  0  0  0
 22 17  1  0  0  0
 33 24  1  0  0  0
 33 28  1  0  0  0
 12 13  1  0  0  0
M  END
> <minimizedAffinity>
-7.80990

> <CNNscore>
0.6237860322

> <CNNaffinity>
6.5364546776

> <CNN_VS>
4.0773491859

> <CNNaffinity_variance>
0.0550002456

$$$$



 33 36  0  0  0  0  0  0  0  0999 V2000
   10.0982   -0.2810   22.4443 N   0  0  0  0  0  0  0  0  0  0  0  0
    8.7077   -0.7929   22.2107 C   0  0  0  0  0  0  0  0  0  0  0  0
    8.4678   -2.2647   22.0481 O   0  0  0  0  0  0  0  0  0  0  0  0
    9.4164    3.6089   22.8372 C   0  0  0  0  0  0  0  0  0  0  0  0
   10.8182    4.1342   22.9320 C   0  0  0  0  0  0  0  0  0  0  0  0
   11.9800    3.1878   22.8642 C   0  0  0  0  0  0  0  0  0  0  0  0
   11.7400    1.7161   22.7017 C   0  0  0  0  0  0  0  0  0  0  0  0
   10.3382    1.1907   22.6069 C   0  0  0  0  0  0  0  0  0  0  0  0
    9.1764    2.1371   22.6746 C   0  0  0  0  0  0  0  0  0  0  0  0
    8.4826    6.0000   23.2375 C   0  0  0  0  0  0  0  0  0  0  0  0
    9.8723    6.4984   23.5023 O   0  0  0  0  0  0  0  0  0  0  0  0
    8.2546    4.5553   22.9049 N   0  0  0  0  0  0  0  0  0  0  0  0
    7.3425    4.2281   22.7311 H   0  0  0  0  0  0  0  0  0  0  0  0
    5.9706    6.4475   23.7271 C   0  0  0  0  0  0  0  0  0  0  0  0
    7.3208    6.9464   23.3052 C   0  0  0  0  0  0  0  0  0  0  0  0
   11.2487   -1.2409   22.5154 C   0  0  0  0  0  0  0  0  0  0  0  0
   11.7018   -1.7714   23.8433 C   0  0  0  0  0  0  0  0  0  0  0  0
   13.0520   -1.3973   24.3793 C   0  0  0  0  0  0  0  0  0  0  0  0
   13.5051   -1.9279   25.7072 C   0  0  0  0  0  0  0  0  0  0  0  0
   12.6080   -2.8325   26.4990 C   0  0  0  0  0  0  0  0  0  0  0  0
   11.2580   -3.2066   25.9631 C   0  0  0  0  0  0  0  0  0  0  0  0
   10.8049   -2.6760   24.6352 C   0  0  0  0  0  0  0  0  0  0  0  0
    7.5573    0.1669   22.1395 C   0  0  0  0  0  0  0  0  0  0  0  0
    6.7818    0.3150   20.8641 C   0  0  0  0  0  0  0  0  0  0  0  0
    7.1580   -0.4953   19.6592 C   0  0  0  0  0  0  0  0  0  0  0  0
    6.3825   -0.3473   18.3838 N   0  0  0  0  0  0  0  0  0  0  0  0
    5.2308    0.6111   18.3133 C   0  0  0  0  0  0  0  0  0  0  0  0
    4.8545    1.4215   19.5182 C   0  0  0  0  0  0  0  0  0  0  0  0
    3.7029    2.3799   19.4476 C   0  0  0  0  0  0  0  0  0  0  0  0
    3.3266    3.1903   20.6525 C   0  0  0  0  0  0  0  0  0  0  0  0
    4.1021    3.0422   21.9279 C   0  0  0  0  0  0  0  0  0  0  0  0
    5.2538    2.0838   21.9985 C   0  0  0  0  0  0  0  0  0  0  0  0
    5.6300    1.2735   20.7936 C   0  0  0  0  0  0  0  0  0  0  0  0
 14 15  1  0  0  0
 15 10  1  0  0  0
 10 11  2  0  0  0
 10 12  1  0  0  0
 12  4  1  0  0  0
  4  5  2  0  0  0
  5  6  1  0  0  0
  6  7  2  0  0  0
  7  8  1  0  0  0
  8  1  1  0  0  0
  1 16  1  0  0  0
 16 17  1  0  0  0
 17 18  2  0  0  0
 18 19  1  0  0  0
 19 20  2  0  0  0
 20 21  1  0  0  0
 21 22  2  0  0  0
  1  2  1  0  0  0
  2  3  2  0  0  0
  2 23  1  0  0  0
 23 24  1  0  0  0
 24 25  2  0  0  0
 25 26  1  0  0  0
 26 27  2  0  0  0
 27 28  1  0  0  0
 28 29  2  0  0  0
 29 30  1  0  0  0
 30 31  2  0  0  0
 31 32  1  0  0  0
 32 33  2  0  0  0
  8  9  2  0  0  0
  9  4  1  0  0  0
 22 17  1  0  0  0
 33 24  1  0  0  0
 33 28  1  0  0  0
 12 13  1  0  0  0
M  END
> <minimizedAffinity>
-8.12400

> <CNNscore>
0.6077113748

> <CNNaffinity>
6.6789960861

> <CNN_VS>
4.0589017868

> <CNNaffinity_variance>
0.0436464287

$$$$



 33 36  0  0  0  0  0  0  0  0999 V2000
    9.5137    0.9672   22.7283 N   0  0  0  0  0  0  0  0  0  0  0  0
   10.7900    0.3043   23.1543 C   0  0  0  0  0  0  0  0  0  0  0  0
   11.9701    1.1382   23.5572 O   0  0  0  0  0  0  0  0  0  0  0  0
    6.0427   -0.0900   21.1207 C   0  0  0  0  0  0  0  0  0  0  0  0
    5.9736   -1.5342   21.5198 C   0  0  0  0  0  0  0  0  0  0  0  0
    7.0846   -2.1447   22.3217 C   0  0  0  0  0  0  0  0  0  0  0  0
    8.2646   -1.3109   22.7246 C   0  0  0  0  0  0  0  0  0  0  0  0
    8.3337    0.1334   22.3255 C   0  0  0  0  0  0  0  0  0  0  0  0
    7.2227    0.7439   21.5235 C   0  0  0  0  0  0  0  0  0  0  0  0
    5.1425    0.8425   18.8690 C   0  0  0  0  0  0  0  0  0  0  0  0
    6.4642    0.5540   18.2212 O   0  0  0  0  0  0  0  0  0  0  0  0
    4.9317    0.5205   20.3187 N   0  0  0  0  0  0  0  0  0  0  0  0
    4.0642    0.7099   20.7440 H   0  0  0  0  0  0  0  0  0  0  0  0
    2.9970    2.3024   18.7440 C   0  0  0  0  0  0  0  0  0  0  0  0
    4.0315    1.4530   18.0670 C   0  0  0  0  0  0  0  0  0  0  0  0
    9.4173    2.4640   22.7053 C   0  0  0  0  0  0  0  0  0  0  0  0
    8.4138    3.1644   23.5726 C   0  0  0  0  0  0  0  0  0  0  0  0
    7.6560    2.3953   24.6140 C   0  0  0  0  0  0  0  0  0  0  0  0
    6.6524    3.0957   25.4813 C   0  0  0  0  0  0  0  0  0  0  0  0
    6.4066    4.5652   25.3073 C   0  0  0  0  0  0  0  0  0  0  0  0
    7.1643    5.3342   24.2660 C   0  0  0  0  0  0  0  0  0  0  0  0
    8.1679    4.6338   23.3986 C   0  0  0  0  0  0  0  0  0  0  0  0
   10.8864   -1.1924   23.1774 C   0  0  0  0  0  0  0  0  0  0  0  0
   11.6688   -1.8770   24.2586 C   0  0  0  0  0  0  0  0  0  0  0  0
   13.1683   -1.8603   24.2246 C   0  0  0  0  0  0  0  0  0  0  0  0
   13.9507   -2.5449   25.3059 N   0  0  0  0  0  0  0  0  0  0  0  0
   13.2336   -3.2462   26.4212 C   0  0  0  0  0  0  0  0  0  0  0  0
   11.7340   -3.2629   26.4553 C   0  0  0  0  0  0  0  0  0  0  0  0
   11.0169   -3.9642   27.5706 C   0  0  0  0  0  0  0  0  0  0  0  0
    9.5174   -3.9809   27.6046 C   0  0  0  0  0  0  0  0  0  0  0  0
    8.7350   -3.2963   26.5233 C   0  0  0  0  0  0  0  0  0  0  0  0
    9.4521   -2.5950   25.4080 C   0  0  0  0  0  0  0  0  0  0  0  0
   10.9516   -2.5783   25.3740 C   0  0  0  0  0  0  0  0  0  0  0  0
 14 15  1  0  0  0
 15 10  1  0  0  0
 10 11  2  0  0  0
 10 12  1  0  0  0
 12  4  1  0  0  0
  4  5  2  0  0  0
  5  6  1  0  0  0
  6  7  2  0  0  0
  7  8  1  0  0  0
  8  1  1  0  0  0
  1 16  1  0  0  0
 16 17  1  0  0  0
 17 18  2  0  0  0
 18 19  1  0  0  0
 19 20  2  0  0  0
 20 21  1  0  0  0
 21 22  2  0  0  0
  1  2  1  0  0  0
  2  3  2  0  0  0
  2 23  1  0  0  0
 23 24  1  0  0  0
 24 25  2  0  0  0
 25 26  1  0  0  0
 26 27  2  0  0  0
 27 28  1  0  0  0
 28 29  2  0  0  0
 29 30  1  0  0  0
 30 31  2  0  0  0
 31 32  1  0  0  0
 32 33  2  0  0  0
  8  9  2  0  0  0
  9  4  1  0  0  0
 22 17  1  0  0  0
 33 24  1  0  0  0
 33 28  1  0  0  0
 12 13  1  0  0  0
M  END
> <minimizedAffinity>
-7.77329

> <CNNscore>
0.5285566449

> <CNNaffinity>
6.3835000992

> <CNN_VS>
3.3740413189

> <CNNaffinity_variance>
0.0427137502

$$$$



 33 36  0  0  0  0  0  0  0  0999 V2000
    7.2924   -2.4435   24.8350 N   0  0  0  0  0  0  0  0  0  0  0  0
    8.3204   -3.3282   24.1944 C   0  0  0  0  0  0  0  0  0  0  0  0
    8.5583   -4.7098   24.7281 O   0  0  0  0  0  0  0  0  0  0  0  0
    5.8644    0.5297   22.6279 C   0  0  0  0  0  0  0  0  0  0  0  0
    6.5787    1.7011   23.2341 C   0  0  0  0  0  0  0  0  0  0  0  0
    7.5309    1.4911   24.3739 C   0  0  0  0  0  0  0  0  0  0  0  0
    7.7688    0.1096   24.9075 C   0  0  0  0  0  0  0  0  0  0  0  0
    7.0545   -1.0620   24.3013 C   0  0  0  0  0  0  0  0  0  0  0  0
    6.1022   -0.8519   23.1616 C   0  0  0  0  0  0  0  0  0  0  0  0
    5.4355    0.8765   20.0891 C   0  0  0  0  0  0  0  0  0  0  0  0
    6.9110    0.8030   19.8298 O   0  0  0  0  0  0  0  0  0  0  0  0
    4.9121    0.7398   21.4881 N   0  0  0  0  0  0  0  0  0  0  0  0
    3.9437    0.7880   21.6583 H   0  0  0  0  0  0  0  0  0  0  0  0
    4.9524    0.9030   17.5365 C   0  0  0  0  0  0  0  0  0  0  0  0
    4.4832    1.0866   18.9493 C   0  0  0  0  0  0  0  0  0  0  0  0
    6.5022   -2.9403   26.0092 C   0  0  0  0  0  0  0  0  0  0  0  0
    5.4918   -4.0335   25.8248 C   0  0  0  0  0  0  0  0  0  0  0  0
    5.1562   -4.5198   24.4460 C   0  0  0  0  0  0  0  0  0  0  0  0
    4.1458   -5.6130   24.2616 C   0  0  0  0  0  0  0  0  0  0  0  0
    3.4710   -6.2199   25.4560 C   0  0  0  0  0  0  0  0  0  0  0  0
    3.8066   -5.7336   26.8347 C   0  0  0  0  0  0  0  0  0  0  0  0
    4.8170   -4.6404   27.0191 C   0  0  0  0  0  0  0  0  0  0  0  0
    9.1106   -2.8314   23.0202 C   0  0  0  0  0  0  0  0  0  0  0  0
   10.2982   -1.9413   23.2379 C   0  0  0  0  0  0  0  0  0  0  0  0
   10.5306   -0.7666   22.3346 C   0  0  0  0  0  0  0  0  0  0  0  0
   11.7182    0.1235   22.5523 N   0  0  0  0  0  0  0  0  0  0  0  0
   12.6734   -0.1612   23.6732 C   0  0  0  0  0  0  0  0  0  0  0  0
   12.4410   -1.3360   24.5765 C   0  0  0  0  0  0  0  0  0  0  0  0
   13.3963   -1.6206   25.6974 C   0  0  0  0  0  0  0  0  0  0  0  0
   13.1639   -2.7954   26.6007 C   0  0  0  0  0  0  0  0  0  0  0  0
   11.9763   -3.6855   26.3830 C   0  0  0  0  0  0  0  0  0  0  0  0
   11.0211   -3.4008   25.2621 C   0  0  0  0  0  0  0  0  0  0  0  0
   11.2534   -2.2261   24.3588 C   0  0  0  0  0  0  0  0  0  0  0  0
 14 15  1  0  0  0
 15 10  1  0  0  0
 10 11  2  0  0  0
 10 12  1  0  0  0
 12  4  1  0  0  0
  4  5  2  0  0  0
  5  6  1  0  0  0
  6  7  2  0  0  0
  7  8  1  0  0  0
  8  1  1  0  0  0
  1 16  1  0  0  0
 16 17  1  0  0  0
 17 18  2  0  0  0
 18 19  1  0  0  0
 19 20  2  0  0  0
 20 21  1  0  0  0
 21 22  2  0  0  0
  1  2  1  0  0  0
  2  3  2  0  0  0
  2 23  1  0  0  0
 23 24  1  0  0  0
 24 25  2  0  0  0
 25 26  1  0  0  0
 26 27  2  0  0  0
 27 28  1  0  0  0
 28 29  2  0  0  0
 29 30  1  0  0  0
 30 31  2  0  0  0
 31 32  1  0  0  0
 32 33  2  0  0  0
  8  9  2  0  0  0
  9  4  1  0  0  0
 22 17  1  0  0  0
 33 24  1  0  0  0
 33 28  1  0  0  0
 12 13  1  0  0  0
M  END
> <minimizedAffinity>
-7.66006

> <CNNscore>
0.5222885609

> <CNNaffinity>
6.3797197342

> <CNN_VS>
3.3320546150

> <CNNaffinity_variance>
0.0427944586

$$$$



 33 36  0  0  0  0  0  0  0  0999 V2000
    9.7357   -0.7247   22.6599 N   0  0  0  0  0  0  0  0  0  0  0  0
    9.9319    0.7190   23.0167 C   0  0  0  0  0  0  0  0  0  0  0  0
   11.3011    1.2276   23.3586 O   0  0  0  0  0  0  0  0  0  0  0  0
    6.1076   -0.9475   21.0671 C   0  0  0  0  0  0  0  0  0  0  0  0
    5.6285   -2.2508   21.6343 C   0  0  0  0  0  0  0  0  0  0  0  0
    6.5185   -3.0455   22.5434 C   0  0  0  0  0  0  0  0  0  0  0  0
    7.8876   -2.5368   22.8853 C   0  0  0  0  0  0  0  0  0  0  0  0
    8.3667   -1.2334   22.3181 C   0  0  0  0  0  0  0  0  0  0  0  0
    7.4767   -0.4387   21.4089 C   0  0  0  0  0  0  0  0  0  0  0  0
    5.6212    0.0846   18.7329 C   0  0  0  0  0  0  0  0  0  0  0  0
    6.9148   -0.4726   18.2170 O   0  0  0  0  0  0  0  0  0  0  0  0
    5.2176   -0.1528   20.1579 N   0  0  0  0  0  0  0  0  0  0  0  0
    4.3686    0.2129   20.4966 H   0  0  0  0  0  0  0  0  0  0  0  0
    3.7517    1.8578   18.4007 C   0  0  0  0  0  0  0  0  0  0  0  0
    4.7312    0.8792   17.8238 C   0  0  0  0  0  0  0  0  0  0  0  0
   10.9086   -1.6597   22.6450 C   0  0  0  0  0  0  0  0  0  0  0  0
   11.5649   -2.0601   23.9330 C   0  0  0  0  0  0  0  0  0  0  0  0
   12.9719   -1.6286   24.2237 C   0  0  0  0  0  0  0  0  0  0  0  0
   13.6282   -2.0290   25.5117 C   0  0  0  0  0  0  0  0  0  0  0  0
   12.8776   -2.8609   26.5090 C   0  0  0  0  0  0  0  0  0  0  0  0
   11.4708   -3.2924   26.2183 C   0  0  0  0  0  0  0  0  0  0  0  0
   10.8144   -2.8920   24.9303 C   0  0  0  0  0  0  0  0  0  0  0  0
    8.7591    1.6540   23.0317 C   0  0  0  0  0  0  0  0  0  0  0  0
    7.9568    1.8308   24.2866 C   0  0  0  0  0  0  0  0  0  0  0  0
    7.8034    0.6879   25.2460 C   0  0  0  0  0  0  0  0  0  0  0  0
    7.0010    0.8647   26.5010 N   0  0  0  0  0  0  0  0  0  0  0  0
    6.3521    2.1843   26.7966 C   0  0  0  0  0  0  0  0  0  0  0  0
    6.5056    3.3273   25.8373 C   0  0  0  0  0  0  0  0  0  0  0  0
    5.8567    4.6469   26.1330 C   0  0  0  0  0  0  0  0  0  0  0  0
    6.0101    5.7897   25.1736 C   0  0  0  0  0  0  0  0  0  0  0  0
    6.8124    5.6129   23.9186 C   0  0  0  0  0  0  0  0  0  0  0  0
    7.4613    4.2933   23.6230 C   0  0  0  0  0  0  0  0  0  0  0  0
    7.3079    3.1505   24.5823 C   0  0  0  0  0  0  0  0  0  0  0  0
 14 15  1  0  0  0
 15 10  1  0  0  0
 10 11  2  0  0  0
 10 12  1  0  0  0
 12  4  1  0  0  0
  4  5  2  0  0  0
  5  6  1  0  0  0
  6  7  2  0  0  0
  7  8  1  0  0  0
  8  1  1  0  0  0
  1 16  1  0  0  0
 16 17  1  0  0  0
 17 18  2  0  0  0
 18 19  1  0  0  0
 19 20  2  0  0  0
 20 21  1  0  0  0
 21 22  2  0  0  0
  1  2  1  0  0  0
  2  3  2  0  0  0
  2 23  1  0  0  0
 23 24  1  0  0  0
 24 25  2  0  0  0
 25 26  1  0  0  0
 26 27  2  0  0  0
 27 28  1  0  0  0
 28 29  2  0  0  0
 29 30  1  0  0  0
 30 31  2  0  0  0
 31 32  1  0  0  0
 32 33  2  0  0  0
  8  9  2  0  0  0
  9  4  1  0  0  0
 22 17  1  0  0  0
 33 24  1  0  0  0
 33 28  1  0  0  0
 12 13  1  0  0  0
M  END
> <minimizedAffinity>
-7.82444

> <CNNscore>
0.5050722361

> <CNNaffinity>
6.2977547646

> <CNN_VS>
3.1808211803

> <CNNaffinity_variance>
0.2549712360

$$$$



 33 36  0  0  0  0  0  0  0  0999 V2000
    8.4895   -0.3025   23.2899 N   0  0  0  0  0  0  0  0  0  0  0  0
    7.7000    0.3809   22.2131 C   0  0  0  0  0  0  0  0  0  0  0  0
    8.1511    1.7086   21.6802 O   0  0  0  0  0  0  0  0  0  0  0  0
    7.1912   -3.0924   25.7961 C   0  0  0  0  0  0  0  0  0  0  0  0
    7.1364   -4.2854   24.8885 C   0  0  0  0  0  0  0  0  0  0  0  0
    7.5326   -4.1507   23.4481 C   0  0  0  0  0  0  0  0  0  0  0  0
    7.9836   -2.8231   22.9152 C   0  0  0  0  0  0  0  0  0  0  0  0
    8.0385   -1.6301   23.8228 C   0  0  0  0  0  0  0  0  0  0  0  0
    7.6423   -1.7647   25.2633 C   0  0  0  0  0  0  0  0  0  0  0  0
    5.3635   -3.4898   27.5992 C   0  0  0  0  0  0  0  0  0  0  0  0
    4.3281   -3.6179   26.5215 O   0  0  0  0  0  0  0  0  0  0  0  0
    6.7950   -3.2271   27.2365 N   0  0  0  0  0  0  0  0  0  0  0  0
    7.4746   -3.1430   27.9439 H   0  0  0  0  0  0  0  0  0  0  0  0
    5.3570   -2.5646   30.0270 C   0  0  0  0  0  0  0  0  0  0  0  0
    4.9673   -3.6244   29.0397 C   0  0  0  0  0  0  0  0  0  0  0  0
    9.7301    0.3419   23.8340 C   0  0  0  0  0  0  0  0  0  0  0  0
   10.9559   -0.4851   24.0860 C   0  0  0  0  0  0  0  0  0  0  0  0
   11.8481   -0.8711   22.9436 C   0  0  0  0  0  0  0  0  0  0  0  0
   13.0739   -1.6981   23.1956 C   0  0  0  0  0  0  0  0  0  0  0  0
   13.4075   -2.1390   24.5900 C   0  0  0  0  0  0  0  0  0  0  0  0
   12.5153   -1.7530   25.7323 C   0  0  0  0  0  0  0  0  0  0  0  0
   11.2895   -0.9261   25.4803 C   0  0  0  0  0  0  0  0  0  0  0  0
    6.4595   -0.2633   21.6690 C   0  0  0  0  0  0  0  0  0  0  0  0
    5.8931    0.1898   20.3561 C   0  0  0  0  0  0  0  0  0  0  0  0
    6.5863   -0.1708   19.0757 C   0  0  0  0  0  0  0  0  0  0  0  0
    6.0199    0.2823   17.7628 N   0  0  0  0  0  0  0  0  0  0  0  0
    4.7603    1.0961   17.7302 C   0  0  0  0  0  0  0  0  0  0  0  0
    4.0670    1.4567   19.0106 C   0  0  0  0  0  0  0  0  0  0  0  0
    2.8073    2.2705   18.9780 C   0  0  0  0  0  0  0  0  0  0  0  0
    2.1141    2.6311   20.2583 C   0  0  0  0  0  0  0  0  0  0  0  0
    2.6805    2.1779   21.5713 C   0  0  0  0  0  0  0  0  0  0  0  0
    3.9401    1.3642   21.6039 C   0  0  0  0  0  0  0  0  0  0  0  0
    4.6334    1.0036   20.3235 C   0  0  0  0  0  0  0  0  0  0  0  0
 14 15  1  0  0  0
 15 10  1  0  0  0
 10 11  2  0  0  0
 10 12  1  0  0  0
 12  4  1  0  0  0
  4  5  2  0  0  0
  5  6  1  0  0  0
  6  7  2  0  0  0
  7  8  1  0  0  0
  8  1  1  0  0  0
  1 16  1  0  0  0
 16 17  1  0  0  0
 17 18  2  0  0  0
 18 19  1  0  0  0
 19 20  2  0  0  0
 20 21  1  0  0  0
 21 22  2  0  0  0
  1  2  1  0  0  0
  2  3  2  0  0  0
  2 23  1  0  0  0
 23 24  1  0  0  0
 24 25  2  0  0  0
 25 26  1  0  0  0
 26 27  2  0  0  0
 27 28  1  0  0  0
 28 29  2  0  0  0
 29 30  1  0  0  0
 30 31  2  0  0  0
 31 32  1  0  0  0
 32 33  2  0  0  0
  8  9  2  0  0  0
  9  4  1  0  0  0
 22 17  1  0  0  0
 33 24  1  0  0  0
 33 28  1  0  0  0
 12 13  1  0  0  0
M  END
> <minimizedAffinity>
-7.58467

> <CNNscore>
0.4978464842

> <CNNaffinity>
6.2520151138

> <CNN_VS>
3.1125438213

> <CNNaffinity_variance>
0.0932305902

$$$$



 33 36  0  0  0  0  0  0  0  0999 V2000
    9.1767    0.2602   23.3168 N   0  0  0  0  0  0  0  0  0  0  0  0
    8.5029    1.1863   22.3481 C   0  0  0  0  0  0  0  0  0  0  0  0
    9.3205    2.1480   21.5376 O   0  0  0  0  0  0  0  0  0  0  0  0
    7.4185   -3.0938   24.5041 C   0  0  0  0  0  0  0  0  0  0  0  0
    6.7243   -2.6249   25.7483 C   0  0  0  0  0  0  0  0  0  0  0  0
    6.8475   -1.1942   26.1820 C   0  0  0  0  0  0  0  0  0  0  0  0
    7.6649   -0.2326   25.3716 C   0  0  0  0  0  0  0  0  0  0  0  0
    8.3592   -0.7015   24.1273 C   0  0  0  0  0  0  0  0  0  0  0  0
    8.2360   -2.1321   23.6935 C   0  0  0  0  0  0  0  0  0  0  0  0
    6.4619   -4.8762   22.8738 C   0  0  0  0  0  0  0  0  0  0  0  0
    5.7518   -3.7974   22.1110 O   0  0  0  0  0  0  0  0  0  0  0  0
    7.2953   -4.5244   24.0703 N   0  0  0  0  0  0  0  0  0  0  0  0
    7.7614   -5.2325   24.5710 H   0  0  0  0  0  0  0  0  0  0  0  0
    7.1964   -7.3600   23.0764 C   0  0  0  0  0  0  0  0  0  0  0  0
    6.3387   -6.3068   22.4400 C   0  0  0  0  0  0  0  0  0  0  0  0
   10.6679    0.2959   23.4751 C   0  0  0  0  0  0  0  0  0  0  0  0
   11.3472   -0.6695   24.4006 C   0  0  0  0  0  0  0  0  0  0  0  0
   10.5346   -1.4829   25.3641 C   0  0  0  0  0  0  0  0  0  0  0  0
   11.2139   -2.4483   26.2896 C   0  0  0  0  0  0  0  0  0  0  0  0
   12.7057   -2.6004   26.2516 C   0  0  0  0  0  0  0  0  0  0  0  0
   13.5182   -1.7871   25.2881 C   0  0  0  0  0  0  0  0  0  0  0  0
   12.8389   -0.8217   24.3626 C   0  0  0  0  0  0  0  0  0  0  0  0
    7.0118    1.1507   22.1898 C   0  0  0  0  0  0  0  0  0  0  0  0
    6.4065    0.9164   20.8375 C   0  0  0  0  0  0  0  0  0  0  0  0
    7.0674   -0.0227   19.8724 C   0  0  0  0  0  0  0  0  0  0  0  0
    6.4621   -0.2570   18.5201 N   0  0  0  0  0  0  0  0  0  0  0  0
    5.1959    0.4477   18.1329 C   0  0  0  0  0  0  0  0  0  0  0  0
    4.5349    1.3868   19.0979 C   0  0  0  0  0  0  0  0  0  0  0  0
    3.2687    2.0915   18.7107 C   0  0  0  0  0  0  0  0  0  0  0  0
    2.6078    3.0306   19.6757 C   0  0  0  0  0  0  0  0  0  0  0  0
    3.2130    3.2649   21.0280 C   0  0  0  0  0  0  0  0  0  0  0  0
    4.4793    2.5602   21.4153 C   0  0  0  0  0  0  0  0  0  0  0  0
    5.1402    1.6211   20.4502 C   0  0  0  0  0  0  0  0  0  0  0  0
 14 15  1  0  0  0
 15 10  1  0  0  0
 10 11  2  0  0  0
 10 12  1  0  0  0
 12  4  1  0  0  0
  4  5  2  0  0  0
  5  6  1  0  0  0
  6  7  2  0  0  0
  7  8  1  0  0  0
  8  1  1  0  0  0
  1 16  1  0  0  0
 16 17  1  0  0  0
 17 18  2  0  0  0
 18 19  1  0  0  0
 19 20  2  0  0  0
 20 21  1  0  0  0
 21 22  2  0  0  0
  1  2  1  0  0  0
  2  3  2  0  0  0
  2 23  1  0  0  0
 23 24  1  0  0  0
 24 25  2  0  0  0
 25 26  1  0  0  0
 26 27  2  0  0  0
 27 28  1  0  0  0
 28 29  2  0  0  0
 29 30  1  0  0  0
 30 31  2  0  0  0
 31 32  1  0  0  0
 32 33  2  0  0  0
  8  9  2  0  0  0
  9  4  1  0  0  0
 22 17  1  0  0  0
 33 24  1  0  0  0
 33 28  1  0  0  0
 12 13  1  0  0  0
M  END
> <minimizedAffinity>
-8.31530

> <CNNscore>
0.4835867584

> <CNNaffinity>
6.4205045700

> <CNN_VS>
3.1048710346

> <CNNaffinity_variance>
0.0370359346

$$$$
