


 36 41  0  0  0  0  0  0  0  0999 V2000
   -7.9389   -1.5966  -23.7458 N   0  0  0  0  0  0  0  0  0  0  0  0
   -8.2124   -0.1318  -23.9178 C   0  0  0  0  0  0  0  0  0  0  0  0
   -9.6094    0.3931  -23.7670 C   0  0  0  0  0  0  0  0  0  0  0  0
  -10.9475    1.0602  -23.6468 C   0  0  0  0  0  0  0  0  0  0  0  0
  -12.1080    0.7839  -23.4162 O   0  0  0  0  0  0  0  0  0  0  0  0
  -10.7579    2.5274  -23.8948 N   0  0  0  0  0  0  0  0  0  0  0  0
   -9.3026    2.7670  -24.1683 C   0  0  0  0  0  0  0  0  0  0  0  0
   -8.5928    1.4479  -24.0892 C   0  0  0  0  0  0  0  0  0  0  0  0
   -7.1243    1.2232  -24.2961 C   0  0  0  0  0  0  0  0  0  0  0  0
  -10.7330   -0.5469  -23.4442 C   0  0  0  0  0  0  0  0  0  0  0  0
  -12.1300   -0.0220  -23.2934 C   0  0  0  0  0  0  0  0  0  0  0  0
  -13.2535   -0.9619  -22.9706 C   0  0  0  0  0  0  0  0  0  0  0  0
  -14.6507   -0.4370  -22.8198 F   0  0  0  0  0  0  0  0  0  0  0  0
  -12.9800   -2.4267  -22.7987 C   0  0  0  0  0  0  0  0  0  0  0  0
  -11.5830   -2.9516  -22.9495 C   0  0  0  0  0  0  0  0  0  0  0  0
  -10.4595   -2.0117  -23.2722 C   0  0  0  0  0  0  0  0  0  0  0  0
   -9.0624   -2.5365  -23.4231 C   0  0  0  0  0  0  0  0  0  0  0  0
   -9.1257   -3.6149  -23.2532 O   0  0  0  0  0  0  0  0  0  0  0  0
  -11.8346    3.5715  -23.8732 C   0  0  0  0  0  0  0  0  0  0  0  0
  -12.6352    3.7976  -22.6251 C   0  0  0  0  0  0  0  0  0  0  0  0
  -13.7119    4.8418  -22.6035 N   0  0  0  0  0  0  0  0  0  0  0  0
  -13.9879    5.6599  -23.8300 C   0  0  0  0  0  0  0  0  0  0  0  0
  -13.1873    5.4338  -25.0782 C   0  0  0  0  0  0  0  0  0  0  0  0
  -13.4634    6.2520  -26.3048 C   0  0  0  0  0  0  0  0  0  0  0  0
  -12.6627    6.0259  -27.5529 C   0  0  0  0  0  0  0  0  0  0  0  0
  -11.5860    4.9817  -27.5745 C   0  0  0  0  0  0  0  0  0  0  0  0
  -11.3100    4.1636  -26.3480 C   0  0  0  0  0  0  0  0  0  0  0  0
  -12.1106    4.3897  -25.0998 C   0  0  0  0  0  0  0  0  0  0  0  0
   -6.5418   -2.1215  -23.8966 C   0  0  0  0  0  0  0  0  0  0  0  0
   -6.1027   -4.7529  -24.0640 N   0  0  0  0  0  0  0  0  0  0  0  0
   -5.8864   -5.7228  -25.1877 N   0  0  0  0  0  0  0  0  0  0  0  0
   -5.9452   -4.9588  -26.4773 C   0  0  0  0  0  0  0  0  0  0  0  0
   -6.1978   -3.5167  -26.1505 C   0  0  0  0  0  0  0  0  0  0  0  0
   -6.2952   -3.3895  -24.6591 C   0  0  0  0  0  0  0  0  0  0  0  0
   -6.1749   -6.5205  -22.1613 C   0  0  0  0  0  0  0  0  0  0  0  0
   -6.1230   -5.0877  -22.6020 C   0  0  0  0  0  0  0  0  0  0  0  0
 35 36  1  0  0  0
 36 30  1  0  0  0
 30 31  1  0  0  0
 31 32  2  0  0  0
 32 33  1  0  0  0
 33 34  2  0  0  0
 34 29  1  0  0  0
 29  1  1  0  0  0
  1  2  1  0  0  0
  3  2  1  0  0  0
  3  4  1  0  0  0
  4  5  2  0  0  0
  4  6  1  0  0  0
  6 19  1  0  0  0
 19 20  2  0  0  0
 20 21  1  0  0  0
 21 22  2  0  0  0
 22 23  1  0  0  0
 23 24  2  0  0  0
 24 25  1  0  0  0
 25 26  2  0  0  0
 26 27  1  0  0  0
 27 28  2  0  0  0
  6  7  1  0  0  0
  7  8  1  0  0  0
  8  9  1  0  0  0
  3 10  1  0  0  0
 10 11  2  0  0  0
 11 12  1  0  0  0
 12 13  1  0  0  0
 12 14  2  0  0  0
 14 15  1  0  0  0
 15 16  2  0  0  0
 16 17  1  0  0  0
 17 18  2  0  0  0
 34 30  1  0  0  0
 17  1  1  0  0  0
  8  3  1  0  0  0
 16 10  1  0  0  0
 28 19  1  0  0  0
 28 23  1  0  0  0
M  END
> <minimizedAffinity>
-7.68185

> <CNNscore>
0.8082097769

> <CNNaffinity>
6.9276266098

> <CNN_VS>
5.5989756584

> <CNNaffinity_variance>
0.0267568789

$$$$



 36 41  0  0  0  0  0  0  0  0999 V2000
   -8.0293   -1.5345  -23.0170 N   0  0  0  0  0  0  0  0  0  0  0  0
   -8.1864   -0.0684  -23.2925 C   0  0  0  0  0  0  0  0  0  0  0  0
   -9.5564    0.5371  -23.3719 C   0  0  0  0  0  0  0  0  0  0  0  0
  -10.8552    1.2798  -23.4794 C   0  0  0  0  0  0  0  0  0  0  0  0
  -12.0514    1.0781  -23.4095 O   0  0  0  0  0  0  0  0  0  0  0  0
  -10.5439    2.7196  -23.7622 N   0  0  0  0  0  0  0  0  0  0  0  0
   -9.0527    2.8669  -23.8295 C   0  0  0  0  0  0  0  0  0  0  0  0
   -8.4424    1.5180  -23.5883 C   0  0  0  0  0  0  0  0  0  0  0  0
   -6.9756    1.2050  -23.5672 C   0  0  0  0  0  0  0  0  0  0  0  0
  -10.7694   -0.3234  -23.1759 C   0  0  0  0  0  0  0  0  0  0  0  0
  -12.1394    0.2822  -23.2554 C   0  0  0  0  0  0  0  0  0  0  0  0
  -13.3522   -0.5784  -23.0594 C   0  0  0  0  0  0  0  0  0  0  0  0
  -14.7223    0.0272  -23.1389 F   0  0  0  0  0  0  0  0  0  0  0  0
  -13.1950   -2.0445  -22.7839 C   0  0  0  0  0  0  0  0  0  0  0  0
  -11.8251   -2.6500  -22.7044 C   0  0  0  0  0  0  0  0  0  0  0  0
  -10.6122   -1.7895  -22.9004 C   0  0  0  0  0  0  0  0  0  0  0  0
   -9.2421   -2.3950  -22.8210 C   0  0  0  0  0  0  0  0  0  0  0  0
   -9.3940   -3.4580  -22.6142 O   0  0  0  0  0  0  0  0  0  0  0  0
  -11.5476    3.8192  -23.9456 C   0  0  0  0  0  0  0  0  0  0  0  0
  -12.4033    4.2535  -22.7927 C   0  0  0  0  0  0  0  0  0  0  0  0
  -13.4070    5.3530  -22.9760 N   0  0  0  0  0  0  0  0  0  0  0  0
  -13.5550    6.0182  -24.3122 C   0  0  0  0  0  0  0  0  0  0  0  0
  -12.6993    5.5839  -25.4651 C   0  0  0  0  0  0  0  0  0  0  0  0
  -12.8473    6.2492  -26.8014 C   0  0  0  0  0  0  0  0  0  0  0  0
  -11.9915    5.8149  -27.9542 C   0  0  0  0  0  0  0  0  0  0  0  0
  -10.9878    4.7153  -27.7709 C   0  0  0  0  0  0  0  0  0  0  0  0
  -10.8399    4.0501  -26.4347 C   0  0  0  0  0  0  0  0  0  0  0  0
  -11.6956    4.4844  -25.2818 C   0  0  0  0  0  0  0  0  0  0  0  0
   -6.6592   -2.1401  -22.9375 C   0  0  0  0  0  0  0  0  0  0  0  0
   -5.7464   -4.0105  -21.2602 N   0  0  0  0  0  0  0  0  0  0  0  0
   -5.2534   -4.0153  -19.8435 N   0  0  0  0  0  0  0  0  0  0  0  0
   -5.3210   -2.6096  -19.3244 C   0  0  0  0  0  0  0  0  0  0  0  0
   -5.8559   -1.7360  -20.4203 C   0  0  0  0  0  0  0  0  0  0  0  0
   -6.1188   -2.6018  -21.6166 C   0  0  0  0  0  0  0  0  0  0  0  0
   -6.0455   -6.5718  -21.5769 C   0  0  0  0  0  0  0  0  0  0  0  0
   -5.8491   -5.2048  -22.1620 C   0  0  0  0  0  0  0  0  0  0  0  0
 35 36  1  0  0  0
 36 30  1  0  0  0
 30 31  1  0  0  0
 31 32  2  0  0  0
 32 33  1  0  0  0
 33 34  2  0  0  0
 34 29  1  0  0  0
 29  1  1  0  0  0
  1  2  1  0  0  0
  3  2  1  0  0  0
  3  4  1  0  0  0
  4  5  2  0  0  0
  4  6  1  0  0  0
  6 19  1  0  0  0
 19 20  2  0  0  0
 20 21  1  0  0  0
 21 22  2  0  0  0
 22 23  1  0  0  0
 23 24  2  0  0  0
 24 25  1  0  0  0
 25 26  2  0  0  0
 26 27  1  0  0  0
 27 28  2  0  0  0
  6  7  1  0  0  0
  7  8  1  0  0  0
  8  9  1  0  0  0
  3 10  1  0  0  0
 10 11  2  0  0  0
 11 12  1  0  0  0
 12 13  1  0  0  0
 12 14  2  0  0  0
 14 15  1  0  0  0
 15 16  2  0  0  0
 16 17  1  0  0  0
 17 18  2  0  0  0
 34 30  1  0  0  0
 17  1  1  0  0  0
  8  3  1  0  0  0
 16 10  1  0  0  0
 28 19  1  0  0  0
 28 23  1  0  0  0
M  END
> <minimizedAffinity>
-8.27719

> <CNNscore>
0.7661837339

> <CNNaffinity>
6.7799506187

> <CNN_VS>
5.1946878433

> <CNNaffinity_variance>
0.1270202994

$$$$



 36 41  0  0  0  0  0  0  0  0999 V2000
   -7.0674   -0.8243  -23.0021 N   0  0  0  0  0  0  0  0  0  0  0  0
   -7.5313    0.5805  -23.2496 C   0  0  0  0  0  0  0  0  0  0  0  0
   -8.9978    0.8796  -23.3490 C   0  0  0  0  0  0  0  0  0  0  0  0
  -10.4237    1.3286  -23.4716 C   0  0  0  0  0  0  0  0  0  0  0  0
  -11.5495    0.8729  -23.4348 O   0  0  0  0  0  0  0  0  0  0  0  0
  -10.4244    2.8086  -23.7158 N   0  0  0  0  0  0  0  0  0  0  0  0
   -8.9988    3.2743  -23.7440 C   0  0  0  0  0  0  0  0  0  0  0  0
   -8.1171    2.0822  -23.5173 C   0  0  0  0  0  0  0  0  0  0  0  0
   -6.6180    2.0910  -23.4677 C   0  0  0  0  0  0  0  0  0  0  0  0
  -10.0005   -0.2262  -23.2007 C   0  0  0  0  0  0  0  0  0  0  0  0
  -11.4670    0.0729  -23.3000 C   0  0  0  0  0  0  0  0  0  0  0  0
  -12.4696   -1.0328  -23.1518 C   0  0  0  0  0  0  0  0  0  0  0  0
  -13.9362   -0.7338  -23.2511 F   0  0  0  0  0  0  0  0  0  0  0  0
  -12.0057   -2.4377  -22.9042 C   0  0  0  0  0  0  0  0  0  0  0  0
  -10.5392   -2.7367  -22.8049 C   0  0  0  0  0  0  0  0  0  0  0  0
   -9.5366   -1.6310  -22.9531 C   0  0  0  0  0  0  0  0  0  0  0  0
   -8.0700   -1.9300  -22.8538 C   0  0  0  0  0  0  0  0  0  0  0  0
   -7.9934   -3.0059  -22.6738 O   0  0  0  0  0  0  0  0  0  0  0  0
  -11.6376    3.6713  -23.8994 C   0  0  0  0  0  0  0  0  0  0  0  0
  -12.5932    3.8739  -22.7611 C   0  0  0  0  0  0  0  0  0  0  0  0
  -13.8065    4.7366  -22.9448 N   0  0  0  0  0  0  0  0  0  0  0  0
  -14.0641    5.3968  -24.2668 C   0  0  0  0  0  0  0  0  0  0  0  0
  -13.1085    5.1943  -25.4051 C   0  0  0  0  0  0  0  0  0  0  0  0
  -13.3661    5.8545  -26.7272 C   0  0  0  0  0  0  0  0  0  0  0  0
  -12.4105    5.6519  -27.8655 C   0  0  0  0  0  0  0  0  0  0  0  0
  -11.1973    4.7892  -27.6818 C   0  0  0  0  0  0  0  0  0  0  0  0
  -10.9396    4.1290  -26.3598 C   0  0  0  0  0  0  0  0  0  0  0  0
  -11.8953    4.3315  -25.2215 C   0  0  0  0  0  0  0  0  0  0  0  0
   -5.6008   -1.1233  -22.9028 C   0  0  0  0  0  0  0  0  0  0  0  0
   -4.8047   -0.5713  -20.4115 N   0  0  0  0  0  0  0  0  0  0  0  0
   -3.7890    0.3491  -19.8020 N   0  0  0  0  0  0  0  0  0  0  0  0
   -3.1102    1.0921  -20.9142 C   0  0  0  0  0  0  0  0  0  0  0  0
   -3.7063    0.6309  -22.2112 C   0  0  0  0  0  0  0  0  0  0  0  0
   -4.7535   -0.3971  -21.9005 C   0  0  0  0  0  0  0  0  0  0  0  0
   -7.1358   -1.1110  -19.3993 C   0  0  0  0  0  0  0  0  0  0  0  0
   -5.7121   -1.5024  -19.6633 C   0  0  0  0  0  0  0  0  0  0  0  0
 35 36  1  0  0  0
 36 30  1  0  0  0
 30 31  1  0  0  0
 31 32  2  0  0  0
 32 33  1  0  0  0
 33 34  2  0  0  0
 34 29  1  0  0  0
 29  1  1  0  0  0
  1  2  1  0  0  0
  3  2  1  0  0  0
  3  4  1  0  0  0
  4  5  2  0  0  0
  4  6  1  0  0  0
  6 19  1  0  0  0
 19 20  2  0  0  0
 20 21  1  0  0  0
 21 22  2  0  0  0
 22 23  1  0  0  0
 23 24  2  0  0  0
 24 25  1  0  0  0
 25 26  2  0  0  0
 26 27  1  0  0  0
 27 28  2  0  0  0
  6  7  1  0  0  0
  7  8  1  0  0  0
  8  9  1  0  0  0
  3 10  1  0  0  0
 10 11  2  0  0  0
 11 12  1  0  0  0
 12 13  1  0  0  0
 12 14  2  0  0  0
 14 15  1  0  0  0
 15 16  2  0  0  0
 16 17  1  0  0  0
 17 18  2  0  0  0
 34 30  1  0  0  0
 17  1  1  0  0  0
  8  3  1  0  0  0
 16 10  1  0  0  0
 28 19  1  0  0  0
 28 23  1  0  0  0
M  END
> <minimizedAffinity>
-8.66883

> <CNNscore>
0.6183586717

> <CNNaffinity>
6.6900901794

> <CNN_VS>
4.1368751526

> <CNNaffinity_variance>
0.0681989193

$$$$



 36 41  0  0  0  0  0  0  0  0999 V2000
   -7.6720   -1.7285  -23.1990 N   0  0  0  0  0  0  0  0  0  0  0  0
   -7.6615   -0.3574  -23.8072 C   0  0  0  0  0  0  0  0  0  0  0  0
   -8.9521    0.3736  -24.0311 C   0  0  0  0  0  0  0  0  0  0  0  0
  -10.1564    1.2220  -24.3136 C   0  0  0  0  0  0  0  0  0  0  0  0
  -11.3660    1.1870  -24.2044 O   0  0  0  0  0  0  0  0  0  0  0  0
   -9.6841    2.5098  -24.9207 N   0  0  0  0  0  0  0  0  0  0  0  0
   -8.1879    2.4574  -25.0134 C   0  0  0  0  0  0  0  0  0  0  0  0
   -7.7355    1.1371  -24.4636 C   0  0  0  0  0  0  0  0  0  0  0  0
   -6.3157    0.6635  -24.3637 C   0  0  0  0  0  0  0  0  0  0  0  0
  -10.2531   -0.2665  -23.6467 C   0  0  0  0  0  0  0  0  0  0  0  0
  -11.5436    0.4645  -23.8706 C   0  0  0  0  0  0  0  0  0  0  0  0
  -12.8445   -0.1756  -23.4863 C   0  0  0  0  0  0  0  0  0  0  0  0
  -14.1351    0.5554  -23.7101 F   0  0  0  0  0  0  0  0  0  0  0  0
  -12.8550   -1.5467  -22.8781 C   0  0  0  0  0  0  0  0  0  0  0  0
  -11.5644   -2.2777  -22.6542 C   0  0  0  0  0  0  0  0  0  0  0  0
  -10.2635   -1.6376  -23.0386 C   0  0  0  0  0  0  0  0  0  0  0  0
   -8.9729   -2.3686  -22.8147 C   0  0  0  0  0  0  0  0  0  0  0  0
   -9.2442   -3.3292  -22.3682 O   0  0  0  0  0  0  0  0  0  0  0  0
  -10.5552    3.6499  -25.3583 C   0  0  0  0  0  0  0  0  0  0  0  0
  -10.3867    4.2401  -26.7270 C   0  0  0  0  0  0  0  0  0  0  0  0
  -11.2578    5.3802  -27.1645 N   0  0  0  0  0  0  0  0  0  0  0  0
  -12.2972    5.9301  -26.2334 C   0  0  0  0  0  0  0  0  0  0  0  0
  -12.4657    5.3399  -24.8647 C   0  0  0  0  0  0  0  0  0  0  0  0
  -13.5052    5.8899  -23.9335 C   0  0  0  0  0  0  0  0  0  0  0  0
  -13.6736    5.2996  -22.5648 C   0  0  0  0  0  0  0  0  0  0  0  0
  -12.8026    4.1595  -22.1273 C   0  0  0  0  0  0  0  0  0  0  0  0
  -11.7631    3.6096  -23.0584 C   0  0  0  0  0  0  0  0  0  0  0  0
  -11.5946    4.1998  -24.4271 C   0  0  0  0  0  0  0  0  0  0  0  0
   -6.3814   -2.4595  -22.9752 C   0  0  0  0  0  0  0  0  0  0  0  0
   -5.6285   -4.1754  -21.0688 N   0  0  0  0  0  0  0  0  0  0  0  0
   -5.2367   -4.0527  -19.6260 N   0  0  0  0  0  0  0  0  0  0  0  0
   -5.3112   -2.6033  -19.2470 C   0  0  0  0  0  0  0  0  0  0  0  0
   -5.7491   -1.8301  -20.4554 C   0  0  0  0  0  0  0  0  0  0  0  0
   -5.9452   -2.8016  -21.5814 C   0  0  0  0  0  0  0  0  0  0  0  0
   -5.6732   -6.7716  -21.1544 C   0  0  0  0  0  0  0  0  0  0  0  0
   -5.6924   -5.4481  -21.8600 C   0  0  0  0  0  0  0  0  0  0  0  0
 35 36  1  0  0  0
 36 30  1  0  0  0
 30 31  1  0  0  0
 31 32  2  0  0  0
 32 33  1  0  0  0
 33 34  2  0  0  0
 34 29  1  0  0  0
 29  1  1  0  0  0
  1  2  1  0  0  0
  3  2  1  0  0  0
  3  4  1  0  0  0
  4  5  2  0  0  0
  4  6  1  0  0  0
  6 19  1  0  0  0
 19 20  2  0  0  0
 20 21  1  0  0  0
 21 22  2  0  0  0
 22 23  1  0  0  0
 23 24  2  0  0  0
 24 25  1  0  0  0
 25 26  2  0  0  0
 26 27  1  0  0  0
 27 28  2  0  0  0
  6  7  1  0  0  0
  7  8  1  0  0  0
  8  9  1  0  0  0
  3 10  1  0  0  0
 10 11  2  0  0  0
 11 12  1  0  0  0
 12 13  1  0  0  0
 12 14  2  0  0  0
 14 15  1  0  0  0
 15 16  2  0  0  0
 16 17  1  0  0  0
 17 18  2  0  0  0
 34 30  1  0  0  0
 17  1  1  0  0  0
  8  3  1  0  0  0
 16 10  1  0  0  0
 28 19  1  0  0  0
 28 23  1  0  0  0
M  END
> <minimizedAffinity>
-8.48617

> <CNNscore>
0.5507767200

> <CNNaffinity>
6.4288940430

> <CNN_VS>
3.5408852100

> <CNNaffinity_variance>
0.5652079582

$$$$



 36 41  0  0  0  0  0  0  0  0999 V2000
   -9.6383    2.6140  -24.2844 N   0  0  0  0  0  0  0  0  0  0  0  0
   -8.6679    1.4778  -24.4166 C   0  0  0  0  0  0  0  0  0  0  0  0
   -9.1210    0.0709  -24.1615 C   0  0  0  0  0  0  0  0  0  0  0  0
   -9.4272   -1.3806  -23.9391 C   0  0  0  0  0  0  0  0  0  0  0  0
  -10.3575   -2.0992  -23.6320 O   0  0  0  0  0  0  0  0  0  0  0  0
   -8.1694   -2.1618  -24.1794 N   0  0  0  0  0  0  0  0  0  0  0  0
   -7.0858   -1.1931  -24.5503 C   0  0  0  0  0  0  0  0  0  0  0  0
   -7.6740    0.1868  -24.5392 C   0  0  0  0  0  0  0  0  0  0  0  0
   -6.9433    1.4591  -24.8511 C   0  0  0  0  0  0  0  0  0  0  0  0
  -10.5447   -0.2000  -23.7742 C   0  0  0  0  0  0  0  0  0  0  0  0
  -10.9978   -1.6069  -23.5191 C   0  0  0  0  0  0  0  0  0  0  0  0
  -12.4214   -1.8778  -23.1319 C   0  0  0  0  0  0  0  0  0  0  0  0
  -12.8746   -3.2848  -22.8767 F   0  0  0  0  0  0  0  0  0  0  0  0
  -13.3918   -0.7417  -22.9997 C   0  0  0  0  0  0  0  0  0  0  0  0
  -12.9387    0.6653  -23.2548 C   0  0  0  0  0  0  0  0  0  0  0  0
  -11.5151    0.9361  -23.6421 C   0  0  0  0  0  0  0  0  0  0  0  0
  -11.0619    2.3431  -23.8972 C   0  0  0  0  0  0  0  0  0  0  0  0
  -11.9395    2.9759  -23.7383 O   0  0  0  0  0  0  0  0  0  0  0  0
   -8.0212   -3.6503  -24.0683 C   0  0  0  0  0  0  0  0  0  0  0  0
   -7.4458   -4.2558  -22.8224 C   0  0  0  0  0  0  0  0  0  0  0  0
   -7.2976   -5.7444  -22.7113 N   0  0  0  0  0  0  0  0  0  0  0  0
   -7.7248   -6.6273  -23.8461 C   0  0  0  0  0  0  0  0  0  0  0  0
   -8.3002   -6.0218  -25.0921 C   0  0  0  0  0  0  0  0  0  0  0  0
   -8.7273   -6.9048  -26.2269 C   0  0  0  0  0  0  0  0  0  0  0  0
   -9.3027   -6.2992  -27.4728 C   0  0  0  0  0  0  0  0  0  0  0  0
   -9.4509   -4.8107  -27.5839 C   0  0  0  0  0  0  0  0  0  0  0  0
   -9.0237   -3.9277  -26.4491 C   0  0  0  0  0  0  0  0  0  0  0  0
   -8.4483   -4.5333  -25.2032 C   0  0  0  0  0  0  0  0  0  0  0  0
   -9.1851    4.0210  -24.5396 C   0  0  0  0  0  0  0  0  0  0  0  0
  -10.3566    5.3230  -26.5589 N   0  0  0  0  0  0  0  0  0  0  0  0
   -9.9564    5.6930  -27.9565 N   0  0  0  0  0  0  0  0  0  0  0  0
   -8.5682    5.1766  -28.1933 C   0  0  0  0  0  0  0  0  0  0  0  0
   -8.1103    4.4874  -26.9421 C   0  0  0  0  0  0  0  0  0  0  0  0
   -9.2155    4.5778  -25.9320 C   0  0  0  0  0  0  0  0  0  0  0  0
  -12.9365    5.0438  -26.4338 C   0  0  0  0  0  0  0  0  0  0  0  0
  -11.6675    5.6421  -25.9034 C   0  0  0  0  0  0  0  0  0  0  0  0
 35 36  1  0  0  0
 36 30  1  0  0  0
 30 31  1  0  0  0
 31 32  2  0  0  0
 32 33  1  0  0  0
 33 34  2  0  0  0
 34 29  1  0  0  0
 29  1  1  0  0  0
  1  2  1  0  0  0
  3  2  1  0  0  0
  3  4  1  0  0  0
  4  5  2  0  0  0
  4  6  1  0  0  0
  6 19  1  0  0  0
 19 20  2  0  0  0
 20 21  1  0  0  0
 21 22  2  0  0  0
 22 23  1  0  0  0
 23 24  2  0  0  0
 24 25  1  0  0  0
 25 26  2  0  0  0
 26 27  1  0  0  0
 27 28  2  0  0  0
  6  7  1  0  0  0
  7  8  1  0  0  0
  8  9  1  0  0  0
  3 10  1  0  0  0
 10 11  2  0  0  0
 11 12  1  0  0  0
 12 13  1  0  0  0
 12 14  2  0  0  0
 14 15  1  0  0  0
 15 16  2  0  0  0
 16 17  1  0  0  0
 17 18  2  0  0  0
 34 30  1  0  0  0
 17  1  1  0  0  0
  8  3  1  0  0  0
 16 10  1  0  0  0
 28 19  1  0  0  0
 28 23  1  0  0  0
M  END
> <minimizedAffinity>
-7.46899

> <CNNscore>
0.4883736968

> <CNNaffinity>
6.6506395340

> <CNN_VS>
3.2479975224

> <CNNaffinity_variance>
0.1044737324

$$$$



 36 41  0  0  0  0  0  0  0  0999 V2000
   -7.7868   -2.1178  -23.2074 N   0  0  0  0  0  0  0  0  0  0  0  0
   -7.7119   -0.7435  -23.8037 C   0  0  0  0  0  0  0  0  0  0  0  0
   -8.9646    0.0571  -24.0027 C   0  0  0  0  0  0  0  0  0  0  0  0
  -10.1259    0.9709  -24.2606 C   0  0  0  0  0  0  0  0  0  0  0  0
  -11.3340    0.9991  -24.1344 O   0  0  0  0  0  0  0  0  0  0  0  0
   -9.5942    2.2375  -24.8632 N   0  0  0  0  0  0  0  0  0  0  0  0
   -8.1043    2.1065  -24.9777 C   0  0  0  0  0  0  0  0  0  0  0  0
   -7.7152    0.7590  -24.4459 C   0  0  0  0  0  0  0  0  0  0  0  0
   -6.3214    0.2098  -24.3706 C   0  0  0  0  0  0  0  0  0  0  0  0
  -10.2924   -0.5166  -23.6054 C   0  0  0  0  0  0  0  0  0  0  0  0
  -11.5452    0.2839  -23.8044 C   0  0  0  0  0  0  0  0  0  0  0  0
  -12.8729   -0.2898  -23.4070 C   0  0  0  0  0  0  0  0  0  0  0  0
  -14.1257    0.5108  -23.6060 F   0  0  0  0  0  0  0  0  0  0  0  0
  -12.9479   -1.6641  -22.8107 C   0  0  0  0  0  0  0  0  0  0  0  0
  -11.6951   -2.4647  -22.6117 C   0  0  0  0  0  0  0  0  0  0  0  0
  -10.3674   -1.8909  -23.0090 C   0  0  0  0  0  0  0  0  0  0  0  0
   -9.1145   -2.6915  -22.8100 C   0  0  0  0  0  0  0  0  0  0  0  0
   -9.4304   -3.6405  -22.3680 O   0  0  0  0  0  0  0  0  0  0  0  0
  -10.4093    3.4263  -25.2783 C   0  0  0  0  0  0  0  0  0  0  0  0
  -10.1782    4.0638  -26.6163 C   0  0  0  0  0  0  0  0  0  0  0  0
  -10.9933    5.2526  -27.0314 N   0  0  0  0  0  0  0  0  0  0  0  0
  -12.0395    5.8039  -26.1086 C   0  0  0  0  0  0  0  0  0  0  0  0
  -12.2706    5.1663  -24.7707 C   0  0  0  0  0  0  0  0  0  0  0  0
  -13.3169    5.7176  -23.8478 C   0  0  0  0  0  0  0  0  0  0  0  0
  -13.5479    5.0799  -22.5099 C   0  0  0  0  0  0  0  0  0  0  0  0
  -12.7327    3.8911  -22.0947 C   0  0  0  0  0  0  0  0  0  0  0  0
  -11.6866    3.3399  -23.0175 C   0  0  0  0  0  0  0  0  0  0  0  0
  -11.4555    3.9775  -24.3555 C   0  0  0  0  0  0  0  0  0  0  0  0
   -6.5340   -2.9183  -23.0084 C   0  0  0  0  0  0  0  0  0  0  0  0
   -6.3084   -5.5077  -23.6327 N   0  0  0  0  0  0  0  0  0  0  0  0
   -5.8846   -6.2717  -24.8520 N   0  0  0  0  0  0  0  0  0  0  0  0
   -5.5209   -5.2802  -25.9172 C   0  0  0  0  0  0  0  0  0  0  0  0
   -5.7199   -3.9033  -25.3562 C   0  0  0  0  0  0  0  0  0  0  0  0
   -6.2066   -4.0439  -23.9443 C   0  0  0  0  0  0  0  0  0  0  0  0
   -5.7531   -6.7369  -21.4121 C   0  0  0  0  0  0  0  0  0  0  0  0
   -6.7555   -6.1029  -22.3304 C   0  0  0  0  0  0  0  0  0  0  0  0
 35 36  1  0  0  0
 36 30  1  0  0  0
 30 31  1  0  0  0
 31 32  2  0  0  0
 32 33  1  0  0  0
 33 34  2  0  0  0
 34 29  1  0  0  0
 29  1  1  0  0  0
  1  2  1  0  0  0
  3  2  1  0  0  0
  3  4  1  0  0  0
  4  5  2  0  0  0
  4  6  1  0  0  0
  6 19  1  0  0  0
 19 20  2  0  0  0
 20 21  1  0  0  0
 21 22  2  0  0  0
 22 23  1  0  0  0
 23 24  2  0  0  0
 24 25  1  0  0  0
 25 26  2  0  0  0
 26 27  1  0  0  0
 27 28  2  0  0  0
  6  7  1  0  0  0
  7  8  1  0  0  0
  8  9  1  0  0  0
  3 10  1  0  0  0
 10 11  2  0  0  0
 11 12  1  0  0  0
 12 13  1  0  0  0
 12 14  2  0  0  0
 14 15  1  0  0  0
 15 16  2  0  0  0
 16 17  1  0  0  0
 17 18  2  0  0  0
 34 30  1  0  0  0
 17  1  1  0  0  0
  8  3  1  0  0  0
 16 10  1  0  0  0
 28 19  1  0  0  0
 28 23  1  0  0  0
M  END
> <minimizedAffinity>
-7.68311

> <CNNscore>
0.4295919538

> <CNNaffinity>
6.4168624878

> <CNN_VS>
2.7566325665

> <CNNaffinity_variance>
0.3044608831

$$$$



 36 41  0  0  0  0  0  0  0  0999 V2000
  -10.9816    3.3864  -23.9686 N   0  0  0  0  0  0  0  0  0  0  0  0
   -9.6811    2.6390  -23.9528 C   0  0  0  0  0  0  0  0  0  0  0  0
   -9.6713    1.1555  -23.7313 C   0  0  0  0  0  0  0  0  0  0  0  0
   -9.5051   -0.3205  -23.5225 C   0  0  0  0  0  0  0  0  0  0  0  0
  -10.1760   -1.3139  -23.3240 O   0  0  0  0  0  0  0  0  0  0  0  0
   -8.0397   -0.6353  -23.5837 N   0  0  0  0  0  0  0  0  0  0  0  0
   -7.3003    0.6462  -23.8305 C   0  0  0  0  0  0  0  0  0  0  0  0
   -8.3086    1.7530  -23.9217 C   0  0  0  0  0  0  0  0  0  0  0  0
   -8.0072    3.2027  -24.1612 C   0  0  0  0  0  0  0  0  0  0  0  0
  -10.9619    0.4193  -23.5255 C   0  0  0  0  0  0  0  0  0  0  0  0
  -10.9521   -1.0642  -23.3040 C   0  0  0  0  0  0  0  0  0  0  0  0
  -12.2427   -1.8003  -23.0982 C   0  0  0  0  0  0  0  0  0  0  0  0
  -12.2329   -3.2839  -22.8767 F   0  0  0  0  0  0  0  0  0  0  0  0
  -13.5431   -1.0529  -23.1139 C   0  0  0  0  0  0  0  0  0  0  0  0
  -13.5530    0.4305  -23.3355 C   0  0  0  0  0  0  0  0  0  0  0  0
  -12.2624    1.1667  -23.5413 C   0  0  0  0  0  0  0  0  0  0  0  0
  -12.2722    2.6502  -23.7628 C   0  0  0  0  0  0  0  0  0  0  0  0
  -13.3225    2.9528  -23.7304 O   0  0  0  0  0  0  0  0  0  0  0  0
   -7.4223   -1.9932  -23.4260 C   0  0  0  0  0  0  0  0  0  0  0  0
   -6.8445   -2.4055  -22.1046 C   0  0  0  0  0  0  0  0  0  0  0  0
   -6.2271   -3.7634  -21.9468 N   0  0  0  0  0  0  0  0  0  0  0  0
   -6.1875   -4.7090  -23.1105 C   0  0  0  0  0  0  0  0  0  0  0  0
   -6.7654   -4.2968  -24.4319 C   0  0  0  0  0  0  0  0  0  0  0  0
   -6.7258   -5.2425  -25.5956 C   0  0  0  0  0  0  0  0  0  0  0  0
   -7.3036   -4.8301  -26.9170 C   0  0  0  0  0  0  0  0  0  0  0  0
   -7.9211   -3.4722  -27.0748 C   0  0  0  0  0  0  0  0  0  0  0  0
   -7.9606   -2.5266  -25.9111 C   0  0  0  0  0  0  0  0  0  0  0  0
   -7.3828   -2.9389  -24.5897 C   0  0  0  0  0  0  0  0  0  0  0  0
  -10.9914    4.8699  -24.1901 C   0  0  0  0  0  0  0  0  0  0  0  0
  -11.6763    5.3011  -26.7377 N   0  0  0  0  0  0  0  0  0  0  0  0
  -12.7707    6.0602  -27.4278 N   0  0  0  0  0  0  0  0  0  0  0  0
  -13.6326    6.6912  -26.3748 C   0  0  0  0  0  0  0  0  0  0  0  0
  -13.0710    6.3221  -25.0337 C   0  0  0  0  0  0  0  0  0  0  0  0
  -11.8620    5.4630  -25.2580 C   0  0  0  0  0  0  0  0  0  0  0  0
   -9.1587    4.9545  -27.2775 C   0  0  0  0  0  0  0  0  0  0  0  0
  -10.5876    4.5178  -27.4093 C   0  0  0  0  0  0  0  0  0  0  0  0
 35 36  1  0  0  0
 36 30  1  0  0  0
 30 31  1  0  0  0
 31 32  2  0  0  0
 32 33  1  0  0  0
 33 34  2  0  0  0
 34 29  1  0  0  0
 29  1  1  0  0  0
  1  2  1  0  0  0
  3  2  1  0  0  0
  3  4  1  0  0  0
  4  5  2  0  0  0
  4  6  1  0  0  0
  6 19  1  0  0  0
 19 20  2  0  0  0
 20 21  1  0  0  0
 21 22  2  0  0  0
 22 23  1  0  0  0
 23 24  2  0  0  0
 24 25  1  0  0  0
 25 26  2  0  0  0
 26 27  1  0  0  0
 27 28  2  0  0  0
  6  7  1  0  0  0
  7  8  1  0  0  0
  8  9  1  0  0  0
  3 10  1  0  0  0
 10 11  2  0  0  0
 11 12  1  0  0  0
 12 13  1  0  0  0
 12 14  2  0  0  0
 14 15  1  0  0  0
 15 16  2  0  0  0
 16 17  1  0  0  0
 17 18  2  0  0  0
 34 30  1  0  0  0
 17  1  1  0  0  0
  8  3  1  0  0  0
 16 10  1  0  0  0
 28 19  1  0  0  0
 28 23  1  0  0  0
M  END
> <minimizedAffinity>
-7.34076

> <CNNscore>
0.4147407711

> <CNNaffinity>
6.5531020164

> <CNN_VS>
2.7178385258

> <CNNaffinity_variance>
0.2740119100

$$$$



 36 41  0  0  0  0  0  0  0  0999 V2000
   -7.3310   -0.6704  -22.5087 N   0  0  0  0  0  0  0  0  0  0  0  0
   -7.6040    0.7533  -22.8943 C   0  0  0  0  0  0  0  0  0  0  0  0
   -9.0048    1.1909  -23.2043 C   0  0  0  0  0  0  0  0  0  0  0  0
  -10.3463    1.7716  -23.5404 C   0  0  0  0  0  0  0  0  0  0  0  0
  -11.5107    1.4354  -23.6280 O   0  0  0  0  0  0  0  0  0  0  0  0
  -10.1548    3.2235  -23.8652 N   0  0  0  0  0  0  0  0  0  0  0  0
   -8.6949    3.5401  -23.7298 C   0  0  0  0  0  0  0  0  0  0  0  0
   -7.9841    2.2839  -23.3213 C   0  0  0  0  0  0  0  0  0  0  0  0
   -6.5113    2.1451  -23.0735 C   0  0  0  0  0  0  0  0  0  0  0  0
  -10.1327    0.2049  -23.1287 C   0  0  0  0  0  0  0  0  0  0  0  0
  -11.5335    0.6426  -23.4387 C   0  0  0  0  0  0  0  0  0  0  0  0
  -12.6613   -0.3434  -23.3632 C   0  0  0  0  0  0  0  0  0  0  0  0
  -14.0622    0.0942  -23.6732 F   0  0  0  0  0  0  0  0  0  0  0  0
  -12.3884   -1.7671  -22.9777 C   0  0  0  0  0  0  0  0  0  0  0  0
  -10.9876   -2.2048  -22.6677 C   0  0  0  0  0  0  0  0  0  0  0  0
   -9.8597   -1.2188  -22.7432 C   0  0  0  0  0  0  0  0  0  0  0  0
   -8.4588   -1.6564  -22.4332 C   0  0  0  0  0  0  0  0  0  0  0  0
   -8.5233   -2.7193  -22.1844 O   0  0  0  0  0  0  0  0  0  0  0  0
  -11.2338    4.1892  -24.2567 C   0  0  0  0  0  0  0  0  0  0  0  0
  -12.1385    4.7678  -23.2095 C   0  0  0  0  0  0  0  0  0  0  0  0
  -13.2175    5.7335  -23.6009 N   0  0  0  0  0  0  0  0  0  0  0  0
  -13.3918    6.1205  -25.0396 C   0  0  0  0  0  0  0  0  0  0  0  0
  -12.4871    5.5418  -26.0868 C   0  0  0  0  0  0  0  0  0  0  0  0
  -12.6614    5.9288  -27.5256 C   0  0  0  0  0  0  0  0  0  0  0  0
  -11.7566    5.3501  -28.5727 C   0  0  0  0  0  0  0  0  0  0  0  0
  -10.6776    4.3844  -28.1813 C   0  0  0  0  0  0  0  0  0  0  0  0
  -10.5034    3.9975  -26.7426 C   0  0  0  0  0  0  0  0  0  0  0  0
  -11.4081    4.5761  -25.6954 C   0  0  0  0  0  0  0  0  0  0  0  0
   -5.9301   -1.1081  -22.1987 C   0  0  0  0  0  0  0  0  0  0  0  0
   -5.4566   -2.1845  -19.7982 N   0  0  0  0  0  0  0  0  0  0  0  0
   -5.2685   -3.5795  -19.2799 N   0  0  0  0  0  0  0  0  0  0  0  0
   -5.3890   -4.5248  -20.4383 C   0  0  0  0  0  0  0  0  0  0  0  0
   -5.6515   -3.7140  -21.6727 C   0  0  0  0  0  0  0  0  0  0  0  0
   -5.6933   -2.2677  -21.2772 C   0  0  0  0  0  0  0  0  0  0  0  0
   -4.9466    0.3554  -19.6017 C   0  0  0  0  0  0  0  0  0  0  0  0
   -5.4152   -0.9273  -18.9812 C   0  0  0  0  0  0  0  0  0  0  0  0
 35 36  1  0  0  0
 36 30  1  0  0  0
 30 31  1  0  0  0
 31 32  2  0  0  0
 32 33  1  0  0  0
 33 34  2  0  0  0
 34 29  1  0  0  0
 29  1  1  0  0  0
  1  2  1  0  0  0
  3  2  1  0  0  0
  3  4  1  0  0  0
  4  5  2  0  0  0
  4  6  1  0  0  0
  6 19  1  0  0  0
 19 20  2  0  0  0
 20 21  1  0  0  0
 21 22  2  0  0  0
 22 23  1  0  0  0
 23 24  2  0  0  0
 24 25  1  0  0  0
 25 26  2  0  0  0
 26 27  1  0  0  0
 27 28  2  0  0  0
  6  7  1  0  0  0
  7  8  1  0  0  0
  8  9  1  0  0  0
  3 10  1  0  0  0
 10 11  2  0  0  0
 11 12  1  0  0  0
 12 13  1  0  0  0
 12 14  2  0  0  0
 14 15  1  0  0  0
 15 16  2  0  0  0
 16 17  1  0  0  0
 17 18  2  0  0  0
 34 30  1  0  0  0
 17  1  1  0  0  0
  8  3  1  0  0  0
 16 10  1  0  0  0
 28 19  1  0  0  0
 28 23  1  0  0  0
M  END
> <minimizedAffinity>
-8.24603

> <CNNscore>
0.3175318837

> <CNNaffinity>
6.2870569229

> <CNN_VS>
1.9963409901

> <CNNaffinity_variance>
0.1365719736

$$$$



 36 41  0  0  0  0  0  0  0  0999 V2000
   -8.8821    2.4283  -24.7307 N   0  0  0  0  0  0  0  0  0  0  0  0
   -8.0341    1.1963  -24.8441 C   0  0  0  0  0  0  0  0  0  0  0  0
   -8.6050   -0.1430  -24.4831 C   0  0  0  0  0  0  0  0  0  0  0  0
   -9.0360   -1.5428  -24.1595 C   0  0  0  0  0  0  0  0  0  0  0  0
  -10.0122   -2.1481  -23.7633 O   0  0  0  0  0  0  0  0  0  0  0  0
   -7.8744   -2.4566  -24.4164 N   0  0  0  0  0  0  0  0  0  0  0  0
   -6.7256   -1.6214  -24.8988 C   0  0  0  0  0  0  0  0  0  0  0  0
   -7.1771   -0.1916  -24.9400 C   0  0  0  0  0  0  0  0  0  0  0  0
   -6.3465    0.9834  -25.3637 C   0  0  0  0  0  0  0  0  0  0  0  0
  -10.0240   -0.2502  -24.0086 C   0  0  0  0  0  0  0  0  0  0  0  0
  -10.5949   -1.5895  -23.6475 C   0  0  0  0  0  0  0  0  0  0  0  0
  -12.0138   -1.6967  -23.1731 C   0  0  0  0  0  0  0  0  0  0  0  0
  -12.5848   -3.0360  -22.8120 F   0  0  0  0  0  0  0  0  0  0  0  0
  -12.8618   -0.4646  -23.0597 C   0  0  0  0  0  0  0  0  0  0  0  0
  -12.2909    0.8746  -23.4208 C   0  0  0  0  0  0  0  0  0  0  0  0
  -10.8720    0.9818  -23.8952 C   0  0  0  0  0  0  0  0  0  0  0  0
  -10.3011    2.3211  -24.2563 C   0  0  0  0  0  0  0  0  0  0  0  0
  -11.1036    3.0453  -24.0910 O   0  0  0  0  0  0  0  0  0  0  0  0
   -7.8637   -3.9442  -24.2246 C   0  0  0  0  0  0  0  0  0  0  0  0
   -7.2992   -4.5341  -22.9662 C   0  0  0  0  0  0  0  0  0  0  0  0
   -7.2885   -6.0218  -22.7744 N   0  0  0  0  0  0  0  0  0  0  0  0
   -7.8422   -6.9195  -23.8409 C   0  0  0  0  0  0  0  0  0  0  0  0
   -8.4066   -6.3295  -25.0993 C   0  0  0  0  0  0  0  0  0  0  0  0
   -8.9604   -7.2273  -26.1658 C   0  0  0  0  0  0  0  0  0  0  0  0
   -9.5248   -6.6373  -27.4241 C   0  0  0  0  0  0  0  0  0  0  0  0
   -9.5356   -5.1497  -27.6159 C   0  0  0  0  0  0  0  0  0  0  0  0
   -8.9819   -4.2520  -26.5494 C   0  0  0  0  0  0  0  0  0  0  0  0
   -8.4174   -4.8419  -25.2911 C   0  0  0  0  0  0  0  0  0  0  0  0
   -8.3112    3.7677  -25.0918 C   0  0  0  0  0  0  0  0  0  0  0  0
   -7.1155    4.3346  -22.7693 N   0  0  0  0  0  0  0  0  0  0  0  0
   -6.8807    5.5850  -21.9746 N   0  0  0  0  0  0  0  0  0  0  0  0
   -7.4873    6.7326  -22.7263 C   0  0  0  0  0  0  0  0  0  0  0  0
   -8.0970    6.1915  -23.9854 C   0  0  0  0  0  0  0  0  0  0  0  0
   -7.8672    4.7095  -24.0121 C   0  0  0  0  0  0  0  0  0  0  0  0
   -5.3296    2.7392  -21.7615 C   0  0  0  0  0  0  0  0  0  0  0  0
   -6.6757    2.9520  -22.3881 C   0  0  0  0  0  0  0  0  0  0  0  0
 35 36  1  0  0  0
 36 30  1  0  0  0
 30 31  1  0  0  0
 31 32  2  0  0  0
 32 33  1  0  0  0
 33 34  2  0  0  0
 34 29  1  0  0  0
 29  1  1  0  0  0
  1  2  1  0  0  0
  3  2  1  0  0  0
  3  4  1  0  0  0
  4  5  2  0  0  0
  4  6  1  0  0  0
  6 19  1  0  0  0
 19 20  2  0  0  0
 20 21  1  0  0  0
 21 22  2  0  0  0
 22 23  1  0  0  0
 23 24  2  0  0  0
 24 25  1  0  0  0
 25 26  2  0  0  0
 26 27  1  0  0  0
 27 28  2  0  0  0
  6  7  1  0  0  0
  7  8  1  0  0  0
  8  9  1  0  0  0
  3 10  1  0  0  0
 10 11  2  0  0  0
 11 12  1  0  0  0
 12 13  1  0  0  0
 12 14  2  0  0  0
 14 15  1  0  0  0
 15 16  2  0  0  0
 16 17  1  0  0  0
 17 18  2  0  0  0
 34 30  1  0  0  0
 17  1  1  0  0  0
  8  3  1  0  0  0
 16 10  1  0  0  0
 28 19  1  0  0  0
 28 23  1  0  0  0
M  END
> <minimizedAffinity>
-7.67132

> <CNNscore>
0.2608314455

> <CNNaffinity>
6.3333659172

> <CNN_VS>
1.6519409418

> <CNNaffinity_variance>
0.1577987820

$$$$
