


 35 40  0  0  0  0  0  0  0  0999 V2000
    7.5415   -3.3141   23.5054 C   0  0  0  0  0  0  0  0  0  0  0  0
    7.7316   -2.0400   22.7368 C   0  0  0  0  0  0  0  0  0  0  0  0
    6.6125   -1.7958   21.7684 C   0  0  0  0  0  0  0  0  0  0  0  0
    6.8916   -0.5073   21.0529 N   0  0  0  0  0  0  0  0  0  0  0  0
    8.1832    0.0448   21.5792 C   0  0  0  0  0  0  0  0  0  0  0  0
    8.8403    1.3202   21.1415 O   0  0  0  0  0  0  0  0  0  0  0  0
    8.7024   -0.9025   22.6199 C   0  0  0  0  0  0  0  0  0  0  0  0
    9.5778    0.2942   22.3932 C   0  0  0  0  0  0  0  0  0  0  0  0
   10.8452    0.4561   23.1791 N   0  0  0  0  0  0  0  0  0  0  0  0
   11.2371   -0.5788   24.1916 C   0  0  0  0  0  0  0  0  0  0  0  0
   12.5045   -0.4170   24.9775 O   0  0  0  0  0  0  0  0  0  0  0  0
   10.3617   -1.7756   24.4184 C   0  0  0  0  0  0  0  0  0  0  0  0
   10.7537   -2.8105   25.4309 C   0  0  0  0  0  0  0  0  0  0  0  0
    9.8783   -4.0073   25.6576 C   0  0  0  0  0  0  0  0  0  0  0  0
    8.6109   -4.1691   24.8718 C   0  0  0  0  0  0  0  0  0  0  0  0
    7.7355   -5.3659   25.0985 F   0  0  0  0  0  0  0  0  0  0  0  0
    8.2189   -3.1342   23.8592 C   0  0  0  0  0  0  0  0  0  0  0  0
    9.0943   -1.9375   23.6325 C   0  0  0  0  0  0  0  0  0  0  0  0
    6.0304    0.1191   19.9965 C   0  0  0  0  0  0  0  0  0  0  0  0
    6.4076   -0.0054   18.5502 C   0  0  0  0  0  0  0  0  0  0  0  0
    5.5463    0.6211   17.4939 N   0  0  0  0  0  0  0  0  0  0  0  0
    4.3079    1.3720   17.8840 C   0  0  0  0  0  0  0  0  0  0  0  0
    3.9306    1.4965   19.3305 C   0  0  0  0  0  0  0  0  0  0  0  0
    2.6921    2.2475   19.7206 C   0  0  0  0  0  0  0  0  0  0  0  0
    2.3149    2.3719   21.1671 C   0  0  0  0  0  0  0  0  0  0  0  0
    3.1762    1.7455   22.2233 C   0  0  0  0  0  0  0  0  0  0  0  0
    4.4146    0.9946   21.8331 C   0  0  0  0  0  0  0  0  0  0  0  0
    4.7919    0.8701   20.3868 C   0  0  0  0  0  0  0  0  0  0  0  0
   11.7206    1.6529   22.9523 C   0  0  0  0  0  0  0  0  0  0  0  0
   11.1317    3.0318   22.9951 C   0  0  0  0  0  0  0  0  0  0  0  0
   11.8991    4.3199   22.9540 C   0  0  0  0  0  0  0  0  0  0  0  0
   10.9137    5.4489   23.0200 N   0  0  0  0  0  0  0  0  0  0  0  0
    9.5372    4.8585   23.1019 N   0  0  0  0  0  0  0  0  0  0  0  0
    9.6719    3.3646   23.0865 N   0  0  0  0  0  0  0  0  0  0  0  0
    8.6935    5.3629   23.1562 H   0  0  0  0  0  0  0  0  0  0  0  0
  2  1  1  0  0  0
  2  3  1  0  0  0
  3  4  1  0  0  0
  4 19  1  0  0  0
 19 20  2  0  0  0
 20 21  1  0  0  0
 21 22  2  0  0  0
 22 23  1  0  0  0
 23 24  2  0  0  0
 24 25  1  0  0  0
 25 26  2  0  0  0
 26 27  1  0  0  0
 27 28  2  0  0  0
  4  5  1  0  0  0
  5  6  2  0  0  0
  5  7  1  0  0  0
  7  8  1  0  0  0
  8  9  1  0  0  0
  9 29  1  0  0  0
 29 30  1  0  0  0
 30 31  1  0  0  0
 31 32  2  0  0  0
 32 33  1  0  0  0
 33 34  1  0  0  0
  9 10  1  0  0  0
 10 11  2  0  0  0
 10 12  1  0  0  0
 12 13  2  0  0  0
 13 14  1  0  0  0
 14 15  2  0  0  0
 15 16  1  0  0  0
 15 17  1  0  0  0
 17 18  2  0  0  0
  7  2  1  0  0  0
 34 30  2  0  0  0
 18 12  1  0  0  0
 28 19  1  0  0  0
 18  7  1  0  0  0
 28 23  1  0  0  0
 33 35  1  0  0  0
M  END
> <minimizedAffinity>
-10.09548

> <CNNscore>
0.6762812138

> <CNNaffinity>
6.8816351891

> <CNN_VS>
4.6539206505

> <CNNaffinity_variance>
0.1005847678

$$$$



 35 40  0  0  0  0  0  0  0  0999 V2000
   11.5217   -1.4555   25.1504 C   0  0  0  0  0  0  0  0  0  0  0  0
   10.7434   -0.4725   24.3270 C   0  0  0  0  0  0  0  0  0  0  0  0
   11.4844    0.8189   24.1445 C   0  0  0  0  0  0  0  0  0  0  0  0
   10.6303    1.7300   23.3136 N   0  0  0  0  0  0  0  0  0  0  0  0
    9.3614    1.0017   22.9826 C   0  0  0  0  0  0  0  0  0  0  0  0
    8.2226    1.5401   22.1683 O   0  0  0  0  0  0  0  0  0  0  0  0
    9.4313   -0.3595   23.6089 C   0  0  0  0  0  0  0  0  0  0  0  0
    8.1633   -0.1014   22.8503 C   0  0  0  0  0  0  0  0  0  0  0  0
    7.1066   -1.1632   22.7722 N   0  0  0  0  0  0  0  0  0  0  0  0
    7.3180   -2.4831   23.4527 C   0  0  0  0  0  0  0  0  0  0  0  0
    6.2613   -3.5449   23.3746 O   0  0  0  0  0  0  0  0  0  0  0  0
    8.5860   -2.7413   24.2113 C   0  0  0  0  0  0  0  0  0  0  0  0
    8.7974   -4.0612   24.8918 C   0  0  0  0  0  0  0  0  0  0  0  0
   10.0654   -4.3193   25.6504 C   0  0  0  0  0  0  0  0  0  0  0  0
   11.1220   -3.2575   25.7285 C   0  0  0  0  0  0  0  0  0  0  0  0
   12.3901   -3.5157   26.4872 F   0  0  0  0  0  0  0  0  0  0  0  0
   10.9107   -1.9376   25.0480 C   0  0  0  0  0  0  0  0  0  0  0  0
    9.6427   -1.6795   24.2894 C   0  0  0  0  0  0  0  0  0  0  0  0
   10.9830    3.1245   22.8884 C   0  0  0  0  0  0  0  0  0  0  0  0
   12.3284    3.4081   22.2890 C   0  0  0  0  0  0  0  0  0  0  0  0
   12.6812    4.8026   21.8637 N   0  0  0  0  0  0  0  0  0  0  0  0
   11.6885    5.9135   22.0380 C   0  0  0  0  0  0  0  0  0  0  0  0
   10.3431    5.6299   22.6376 C   0  0  0  0  0  0  0  0  0  0  0  0
    9.3504    6.7410   22.8119 C   0  0  0  0  0  0  0  0  0  0  0  0
    8.0050    6.4573   23.4114 C   0  0  0  0  0  0  0  0  0  0  0  0
    7.6523    5.0628   23.8365 C   0  0  0  0  0  0  0  0  0  0  0  0
    8.6449    3.9518   23.6622 C   0  0  0  0  0  0  0  0  0  0  0  0
    9.9903    4.2354   23.0628 C   0  0  0  0  0  0  0  0  0  0  0  0
    5.8386   -0.9050   22.0136 C   0  0  0  0  0  0  0  0  0  0  0  0
    5.8463   -0.9168   20.5137 C   0  0  0  0  0  0  0  0  0  0  0  0
    6.5897    0.0389   19.6283 C   0  0  0  0  0  0  0  0  0  0  0  0
    6.3148   -0.3400   18.2032 N   0  0  0  0  0  0  0  0  0  0  0  0
    5.4015   -1.5300   18.2078 N   0  0  0  0  0  0  0  0  0  0  0  0
    5.1120   -1.8864   19.6358 N   0  0  0  0  0  0  0  0  0  0  0  0
    5.0533   -1.9953   17.4132 H   0  0  0  0  0  0  0  0  0  0  0  0
  2  1  1  0  0  0
  2  3  1  0  0  0
  3  4  1  0  0  0
  4 19  1  0  0  0
 19 20  2  0  0  0
 20 21  1  0  0  0
 21 22  2  0  0  0
 22 23  1  0  0  0
 23 24  2  0  0  0
 24 25  1  0  0  0
 25 26  2  0  0  0
 26 27  1  0  0  0
 27 28  2  0  0  0
  4  5  1  0  0  0
  5  6  2  0  0  0
  5  7  1  0  0  0
  7  8  1  0  0  0
  8  9  1  0  0  0
  9 29  1  0  0  0
 29 30  1  0  0  0
 30 31  1  0  0  0
 31 32  2  0  0  0
 32 33  1  0  0  0
 33 34  1  0  0  0
  9 10  1  0  0  0
 10 11  2  0  0  0
 10 12  1  0  0  0
 12 13  2  0  0  0
 13 14  1  0  0  0
 14 15  2  0  0  0
 15 16  1  0  0  0
 15 17  1  0  0  0
 17 18  2  0  0  0
  7  2  1  0  0  0
 34 30  2  0  0  0
 18 12  1  0  0  0
 28 19  1  0  0  0
 18  7  1  0  0  0
 28 23  1  0  0  0
 33 35  1  0  0  0
M  END
> <minimizedAffinity>
-9.29581

> <CNNscore>
0.5832898021

> <CNNaffinity>
6.8796935081

> <CNN_VS>
4.0128550529

> <CNNaffinity_variance>
0.0438825488

$$$$



 35 40  0  0  0  0  0  0  0  0999 V2000
    5.7733   -0.5991   26.7897 C   0  0  0  0  0  0  0  0  0  0  0  0
    6.5014   -0.2172   25.5350 C   0  0  0  0  0  0  0  0  0  0  0  0
    7.9821   -0.4223   25.6601 C   0  0  0  0  0  0  0  0  0  0  0  0
    8.6175   -0.0151   24.3638 N   0  0  0  0  0  0  0  0  0  0  0  0
    7.5296    0.4415   23.4376 C   0  0  0  0  0  0  0  0  0  0  0  0
    7.7167    0.9362   22.0339 O   0  0  0  0  0  0  0  0  0  0  0  0
    6.2218    0.3167   24.1614 C   0  0  0  0  0  0  0  0  0  0  0  0
    6.0969    0.8432   22.7625 C   0  0  0  0  0  0  0  0  0  0  0  0
    4.7465    1.1911   22.2098 N   0  0  0  0  0  0  0  0  0  0  0  0
    3.5210    1.0124   23.0560 C   0  0  0  0  0  0  0  0  0  0  0  0
    2.1707    1.3603   22.5033 O   0  0  0  0  0  0  0  0  0  0  0  0
    3.6459    0.4859   24.4551 C   0  0  0  0  0  0  0  0  0  0  0  0
    2.4204    0.3073   25.3013 C   0  0  0  0  0  0  0  0  0  0  0  0
    2.5452   -0.2192   26.7003 C   0  0  0  0  0  0  0  0  0  0  0  0
    3.8956   -0.5671   27.2530 C   0  0  0  0  0  0  0  0  0  0  0  0
    4.0204   -1.0937   28.6521 F   0  0  0  0  0  0  0  0  0  0  0  0
    5.1211   -0.3885   26.4067 C   0  0  0  0  0  0  0  0  0  0  0  0
    4.9962    0.1380   25.0078 C   0  0  0  0  0  0  0  0  0  0  0  0
   10.0835   -0.0573   24.0490 C   0  0  0  0  0  0  0  0  0  0  0  0
   10.6669    0.9106   23.0627 C   0  0  0  0  0  0  0  0  0  0  0  0
   12.1329    0.8684   22.7479 N   0  0  0  0  0  0  0  0  0  0  0  0
   13.0154   -0.1416   23.4194 C   0  0  0  0  0  0  0  0  0  0  0  0
   12.4320   -1.1095   24.4057 C   0  0  0  0  0  0  0  0  0  0  0  0
   13.3146   -2.1196   25.0772 C   0  0  0  0  0  0  0  0  0  0  0  0
   12.7311   -3.0874   26.0635 C   0  0  0  0  0  0  0  0  0  0  0  0
   11.2652   -3.0452   26.3783 C   0  0  0  0  0  0  0  0  0  0  0  0
   10.3826   -2.0352   25.7068 C   0  0  0  0  0  0  0  0  0  0  0  0
   10.9660   -1.0674   24.7205 C   0  0  0  0  0  0  0  0  0  0  0  0
    4.6217    1.7176   20.8107 C   0  0  0  0  0  0  0  0  0  0  0  0
    4.8704    0.8099   19.6428 C   0  0  0  0  0  0  0  0  0  0  0  0
    4.7493    1.1828   18.1949 C   0  0  0  0  0  0  0  0  0  0  0  0
    5.0879   -0.0267   17.3749 N   0  0  0  0  0  0  0  0  0  0  0  0
    5.4182   -1.1472   18.3160 N   0  0  0  0  0  0  0  0  0  0  0  0
    5.2838   -0.6301   19.7176 N   0  0  0  0  0  0  0  0  0  0  0  0
    5.6777   -2.0614   18.0588 H   0  0  0  0  0  0  0  0  0  0  0  0
  2  1  1  0  0  0
  2  3  1  0  0  0
  3  4  1  0  0  0
  4 19  1  0  0  0
 19 20  2  0  0  0
 20 21  1  0  0  0
 21 22  2  0  0  0
 22 23  1  0  0  0
 23 24  2  0  0  0
 24 25  1  0  0  0
 25 26  2  0  0  0
 26 27  1  0  0  0
 27 28  2  0  0  0
  4  5  1  0  0  0
  5  6  2  0  0  0
  5  7  1  0  0  0
  7  8  1  0  0  0
  8  9  1  0  0  0
  9 29  1  0  0  0
 29 30  1  0  0  0
 30 31  1  0  0  0
 31 32  2  0  0  0
 32 33  1  0  0  0
 33 34  1  0  0  0
  9 10  1  0  0  0
 10 11  2  0  0  0
 10 12  1  0  0  0
 12 13  2  0  0  0
 13 14  1  0  0  0
 14 15  2  0  0  0
 15 16  1  0  0  0
 15 17  1  0  0  0
 17 18  2  0  0  0
  7  2  1  0  0  0
 34 30  2  0  0  0
 18 12  1  0  0  0
 28 19  1  0  0  0
 18  7  1  0  0  0
 28 23  1  0  0  0
 33 35  1  0  0  0
M  END
> <minimizedAffinity>
-8.43291

> <CNNscore>
0.5647022724

> <CNNaffinity>
6.6703896523

> <CNN_VS>
3.7667841911

> <CNNaffinity_variance>
0.0806875676

$$$$



 35 40  0  0  0  0  0  0  0  0999 V2000
   10.9584   -3.3552   26.1273 C   0  0  0  0  0  0  0  0  0  0  0  0
    9.5705   -2.8819   25.8114 C   0  0  0  0  0  0  0  0  0  0  0  0
    8.5232   -3.7923   26.3806 C   0  0  0  0  0  0  0  0  0  0  0  0
    7.1784   -3.2384   26.0138 N   0  0  0  0  0  0  0  0  0  0  0  0
    7.3946   -1.9855   25.2178 C   0  0  0  0  0  0  0  0  0  0  0  0
    6.3209   -1.1072   24.6470 O   0  0  0  0  0  0  0  0  0  0  0  0
    8.8731   -1.7652   25.0927 C   0  0  0  0  0  0  0  0  0  0  0  0
    8.0406   -0.7168   24.4161 C   0  0  0  0  0  0  0  0  0  0  0  0
    8.7050    0.4206   23.6983 N   0  0  0  0  0  0  0  0  0  0  0  0
   10.2017    0.5095   23.6572 C   0  0  0  0  0  0  0  0  0  0  0  0
   10.8661    1.6468   22.9394 O   0  0  0  0  0  0  0  0  0  0  0  0
   11.0343   -0.5390   24.3338 C   0  0  0  0  0  0  0  0  0  0  0  0
   12.5310   -0.4501   24.2926 C   0  0  0  0  0  0  0  0  0  0  0  0
   13.3635   -1.4985   24.9692 C   0  0  0  0  0  0  0  0  0  0  0  0
   12.6991   -2.6358   25.6870 C   0  0  0  0  0  0  0  0  0  0  0  0
   13.5316   -3.6843   26.3636 F   0  0  0  0  0  0  0  0  0  0  0  0
   11.2024   -2.7247   25.7281 C   0  0  0  0  0  0  0  0  0  0  0  0
   10.3699   -1.6763   25.0515 C   0  0  0  0  0  0  0  0  0  0  0  0
    5.8504   -3.8328   26.3788 C   0  0  0  0  0  0  0  0  0  0  0  0
    5.0846   -4.6346   25.3687 C   0  0  0  0  0  0  0  0  0  0  0  0
    3.7566   -5.2291   25.7337 N   0  0  0  0  0  0  0  0  0  0  0  0
    3.1947   -5.0216   27.1088 C   0  0  0  0  0  0  0  0  0  0  0  0
    3.9606   -4.2198   28.1190 C   0  0  0  0  0  0  0  0  0  0  0  0
    3.3985   -4.0124   29.4942 C   0  0  0  0  0  0  0  0  0  0  0  0
    4.1645   -3.2105   30.5043 C   0  0  0  0  0  0  0  0  0  0  0  0
    5.4924   -2.6161   30.1393 C   0  0  0  0  0  0  0  0  0  0  0  0
    6.0544   -2.8235   28.7641 C   0  0  0  0  0  0  0  0  0  0  0  0
    5.2885   -3.6253   27.7540 C   0  0  0  0  0  0  0  0  0  0  0  0
    7.8725    1.4690   23.0217 C   0  0  0  0  0  0  0  0  0  0  0  0
    7.6867    2.8106   23.6663 C   0  0  0  0  0  0  0  0  0  0  0  0
    6.7349    3.1289   24.7810 C   0  0  0  0  0  0  0  0  0  0  0  0
    6.8801    4.5845   25.1131 N   0  0  0  0  0  0  0  0  0  0  0  0
    7.9218    5.1658   24.2036 N   0  0  0  0  0  0  0  0  0  0  0  0
    8.4203    4.0694   23.3095 N   0  0  0  0  0  0  0  0  0  0  0  0
    8.2250    6.1024   24.1951 H   0  0  0  0  0  0  0  0  0  0  0  0
  2  1  1  0  0  0
  2  3  1  0  0  0
  3  4  1  0  0  0
  4 19  1  0  0  0
 19 20  2  0  0  0
 20 21  1  0  0  0
 21 22  2  0  0  0
 22 23  1  0  0  0
 23 24  2  0  0  0
 24 25  1  0  0  0
 25 26  2  0  0  0
 26 27  1  0  0  0
 27 28  2  0  0  0
  4  5  1  0  0  0
  5  6  2  0  0  0
  5  7  1  0  0  0
  7  8  1  0  0  0
  8  9  1  0  0  0
  9 29  1  0  0  0
 29 30  1  0  0  0
 30 31  1  0  0  0
 31 32  2  0  0  0
 32 33  1  0  0  0
 33 34  1  0  0  0
  9 10  1  0  0  0
 10 11  2  0  0  0
 10 12  1  0  0  0
 12 13  2  0  0  0
 13 14  1  0  0  0
 14 15  2  0  0  0
 15 16  1  0  0  0
 15 17  1  0  0  0
 17 18  2  0  0  0
  7  2  1  0  0  0
 34 30  2  0  0  0
 18 12  1  0  0  0
 28 19  1  0  0  0
 18  7  1  0  0  0
 28 23  1  0  0  0
 33 35  1  0  0  0
M  END
> <minimizedAffinity>
-8.08660

> <CNNscore>
0.4630985558

> <CNNaffinity>
6.6518974304

> <CNN_VS>
3.0804841518

> <CNNaffinity_variance>
0.1811144501

$$$$



 35 40  0  0  0  0  0  0  0  0999 V2000
   10.7880   -1.8126   24.4111 C   0  0  0  0  0  0  0  0  0  0  0  0
    9.3518   -2.0735   24.0655 C   0  0  0  0  0  0  0  0  0  0  0  0
    8.8830   -3.4028   24.5787 C   0  0  0  0  0  0  0  0  0  0  0  0
    7.4452   -3.5705   24.1857 N   0  0  0  0  0  0  0  0  0  0  0  0
    7.0254   -2.3449   23.4296 C   0  0  0  0  0  0  0  0  0  0  0  0
    5.6658   -2.0894   22.8495 O   0  0  0  0  0  0  0  0  0  0  0  0
    8.2037   -1.4197   23.3553 C   0  0  0  0  0  0  0  0  0  0  0  0
    6.9714   -0.8934   22.6813 C   0  0  0  0  0  0  0  0  0  0  0  0
    6.9972    0.4498   22.0140 N   0  0  0  0  0  0  0  0  0  0  0  0
    8.2552    1.2666   22.0207 C   0  0  0  0  0  0  0  0  0  0  0  0
    8.2809    2.6097   21.3534 O   0  0  0  0  0  0  0  0  0  0  0  0
    9.4876    0.7403   22.6948 C   0  0  0  0  0  0  0  0  0  0  0  0
   10.7456    1.5571   22.7015 C   0  0  0  0  0  0  0  0  0  0  0  0
   11.9779    1.0307   23.3756 C   0  0  0  0  0  0  0  0  0  0  0  0
   11.9522   -0.3124   24.0429 C   0  0  0  0  0  0  0  0  0  0  0  0
   13.1846   -0.8387   24.7169 F   0  0  0  0  0  0  0  0  0  0  0  0
   10.6941   -1.1292   24.0361 C   0  0  0  0  0  0  0  0  0  0  0  0
    9.4618   -0.6029   23.3621 C   0  0  0  0  0  0  0  0  0  0  0  0
    6.5792   -4.7557   24.4945 C   0  0  0  0  0  0  0  0  0  0  0  0
    6.6645   -5.9887   23.6446 C   0  0  0  0  0  0  0  0  0  0  0  0
    5.7985   -7.1739   23.9534 N   0  0  0  0  0  0  0  0  0  0  0  0
    4.8472   -7.1260   25.1121 C   0  0  0  0  0  0  0  0  0  0  0  0
    4.7619   -5.8930   25.9620 C   0  0  0  0  0  0  0  0  0  0  0  0
    3.8105   -5.8451   27.1208 C   0  0  0  0  0  0  0  0  0  0  0  0
    3.7252   -4.6120   27.9707 C   0  0  0  0  0  0  0  0  0  0  0  0
    4.5912   -3.4269   27.6618 C   0  0  0  0  0  0  0  0  0  0  0  0
    5.5425   -3.4748   26.5031 C   0  0  0  0  0  0  0  0  0  0  0  0
    5.6279   -4.7078   25.6532 C   0  0  0  0  0  0  0  0  0  0  0  0
    5.7648    0.9761   21.3399 C   0  0  0  0  0  0  0  0  0  0  0  0
    5.5065    0.6604   19.8965 C   0  0  0  0  0  0  0  0  0  0  0  0
    6.2780   -0.3128   19.0551 C   0  0  0  0  0  0  0  0  0  0  0  0
    5.6798   -0.3123   17.6796 N   0  0  0  0  0  0  0  0  0  0  0  0
    4.5386    0.6613   17.6707 N   0  0  0  0  0  0  0  0  0  0  0  0
    4.4316    1.2624   19.0408 N   0  0  0  0  0  0  0  0  0  0  0  0
    3.9613    0.8692   16.9009 H   0  0  0  0  0  0  0  0  0  0  0  0
  2  1  1  0  0  0
  2  3  1  0  0  0
  3  4  1  0  0  0
  4 19  1  0  0  0
 19 20  2  0  0  0
 20 21  1  0  0  0
 21 22  2  0  0  0
 22 23  1  0  0  0
 23 24  2  0  0  0
 24 25  1  0  0  0
 25 26  2  0  0  0
 26 27  1  0  0  0
 27 28  2  0  0  0
  4  5  1  0  0  0
  5  6  2  0  0  0
  5  7  1  0  0  0
  7  8  1  0  0  0
  8  9  1  0  0  0
  9 29  1  0  0  0
 29 30  1  0  0  0
 30 31  1  0  0  0
 31 32  2  0  0  0
 32 33  1  0  0  0
 33 34  1  0  0  0
  9 10  1  0  0  0
 10 11  2  0  0  0
 10 12  1  0  0  0
 12 13  2  0  0  0
 13 14  1  0  0  0
 14 15  2  0  0  0
 15 16  1  0  0  0
 15 17  1  0  0  0
 17 18  2  0  0  0
  7  2  1  0  0  0
 34 30  2  0  0  0
 18 12  1  0  0  0
 28 19  1  0  0  0
 18  7  1  0  0  0
 28 23  1  0  0  0
 33 35  1  0  0  0
M  END
> <minimizedAffinity>
-9.04935

> <CNNscore>
0.4558572471

> <CNNaffinity>
6.6941614151

> <CNN_VS>
3.0515820980

> <CNNaffinity_variance>
0.0570529476

$$$$



 35 40  0  0  0  0  0  0  0  0999 V2000
   10.9877    0.0242   22.5047 C   0  0  0  0  0  0  0  0  0  0  0  0
    9.5954   -0.4829   22.2713 C   0  0  0  0  0  0  0  0  0  0  0  0
    8.8825    0.3013   21.2098 C   0  0  0  0  0  0  0  0  0  0  0  0
    7.5080   -0.2778   21.0502 N   0  0  0  0  0  0  0  0  0  0  0  0
    7.3715   -1.4199   22.0130 C   0  0  0  0  0  0  0  0  0  0  0  0
    6.1580   -2.2836   22.1900 O   0  0  0  0  0  0  0  0  0  0  0  0
    8.6616   -1.5467   22.7677 C   0  0  0  0  0  0  0  0  0  0  0  0
    7.6229   -2.5545   23.1616 C   0  0  0  0  0  0  0  0  0  0  0  0
    7.9259   -3.5672   24.2258 N   0  0  0  0  0  0  0  0  0  0  0  0
    9.2678   -3.5721   24.8962 C   0  0  0  0  0  0  0  0  0  0  0  0
    9.5708   -4.5848   25.9604 O   0  0  0  0  0  0  0  0  0  0  0  0
   10.3066   -2.5642   24.5023 C   0  0  0  0  0  0  0  0  0  0  0  0
   11.6484   -2.5690   25.1727 C   0  0  0  0  0  0  0  0  0  0  0  0
   12.6872   -1.5612   24.7788 C   0  0  0  0  0  0  0  0  0  0  0  0
   12.3841   -0.5485   23.7145 C   0  0  0  0  0  0  0  0  0  0  0  0
   13.4230    0.4594   23.3207 F   0  0  0  0  0  0  0  0  0  0  0  0
   11.0423   -0.5437   23.0442 C   0  0  0  0  0  0  0  0  0  0  0  0
   10.0035   -1.5515   23.4381 C   0  0  0  0  0  0  0  0  0  0  0  0
    6.4549    0.2011   20.0954 C   0  0  0  0  0  0  0  0  0  0  0  0
    6.3329   -0.4249   18.7378 C   0  0  0  0  0  0  0  0  0  0  0  0
    5.2798    0.0539   17.7830 N   0  0  0  0  0  0  0  0  0  0  0  0
    4.3487    1.1588   18.1858 C   0  0  0  0  0  0  0  0  0  0  0  0
    4.4708    1.7849   19.5435 C   0  0  0  0  0  0  0  0  0  0  0  0
    3.5397    2.8898   19.9464 C   0  0  0  0  0  0  0  0  0  0  0  0
    3.6618    3.5158   21.3040 C   0  0  0  0  0  0  0  0  0  0  0  0
    4.7149    3.0369   22.2587 C   0  0  0  0  0  0  0  0  0  0  0  0
    5.6459    1.9320   21.8559 C   0  0  0  0  0  0  0  0  0  0  0  0
    5.5239    1.3060   20.4983 C   0  0  0  0  0  0  0  0  0  0  0  0
    6.8871   -4.5751   24.6197 C   0  0  0  0  0  0  0  0  0  0  0  0
    6.1532   -5.3475   23.5639 C   0  0  0  0  0  0  0  0  0  0  0  0
    6.7332   -5.8476   22.2741 C   0  0  0  0  0  0  0  0  0  0  0  0
    5.6489   -6.5646   21.5256 N   0  0  0  0  0  0  0  0  0  0  0  0
    4.3988   -6.5077   22.3527 N   0  0  0  0  0  0  0  0  0  0  0  0
    4.7105   -5.7554   23.6124 N   0  0  0  0  0  0  0  0  0  0  0  0
    3.5269   -6.8958   22.1112 H   0  0  0  0  0  0  0  0  0  0  0  0
  2  1  1  0  0  0
  2  3  1  0  0  0
  3  4  1  0  0  0
  4 19  1  0  0  0
 19 20  2  0  0  0
 20 21  1  0  0  0
 21 22  2  0  0  0
 22 23  1  0  0  0
 23 24  2  0  0  0
 24 25  1  0  0  0
 25 26  2  0  0  0
 26 27  1  0  0  0
 27 28  2  0  0  0
  4  5  1  0  0  0
  5  6  2  0  0  0
  5  7  1  0  0  0
  7  8  1  0  0  0
  8  9  1  0  0  0
  9 29  1  0  0  0
 29 30  1  0  0  0
 30 31  1  0  0  0
 31 32  2  0  0  0
 32 33  1  0  0  0
 33 34  1  0  0  0
  9 10  1  0  0  0
 10 11  2  0  0  0
 10 12  1  0  0  0
 12 13  2  0  0  0
 13 14  1  0  0  0
 14 15  2  0  0  0
 15 16  1  0  0  0
 15 17  1  0  0  0
 17 18  2  0  0  0
  7  2  1  0  0  0
 34 30  2  0  0  0
 18 12  1  0  0  0
 28 19  1  0  0  0
 18  7  1  0  0  0
 28 23  1  0  0  0
 33 35  1  0  0  0
M  END
> <minimizedAffinity>
-9.45420

> <CNNscore>
0.4336917102

> <CNNaffinity>
6.6901016235

> <CNN_VS>
2.9014415741

> <CNNaffinity_variance>
0.1631340384

$$$$



 35 40  0  0  0  0  0  0  0  0999 V2000
    9.1527   -0.9391   23.7116 C   0  0  0  0  0  0  0  0  0  0  0  0
    7.9923   -1.3363   22.8479 C   0  0  0  0  0  0  0  0  0  0  0  0
    7.5984   -0.2437   21.8987 C   0  0  0  0  0  0  0  0  0  0  0  0
    6.4378   -0.7333   21.0843 N   0  0  0  0  0  0  0  0  0  0  0  0
    6.1145   -2.1285   21.5301 C   0  0  0  0  0  0  0  0  0  0  0  0
    5.0222   -2.9984   20.9821 O   0  0  0  0  0  0  0  0  0  0  0  0
    7.0753   -2.5013   22.6201 C   0  0  0  0  0  0  0  0  0  0  0  0
    6.0888   -3.5792   22.2815 C   0  0  0  0  0  0  0  0  0  0  0  0
    6.1259   -4.8872   23.0149 N   0  0  0  0  0  0  0  0  0  0  0  0
    7.1495   -5.1172   24.0869 C   0  0  0  0  0  0  0  0  0  0  0  0
    7.1866   -6.4251   24.8203 O   0  0  0  0  0  0  0  0  0  0  0  0
    8.1361   -4.0392   24.4256 C   0  0  0  0  0  0  0  0  0  0  0  0
    9.1597   -4.2691   25.4976 C   0  0  0  0  0  0  0  0  0  0  0  0
   10.1462   -3.1911   25.8362 C   0  0  0  0  0  0  0  0  0  0  0  0
   10.1091   -1.8832   25.1028 C   0  0  0  0  0  0  0  0  0  0  0  0
   11.0957   -0.8052   25.4415 F   0  0  0  0  0  0  0  0  0  0  0  0
    9.0855   -1.6532   24.0308 C   0  0  0  0  0  0  0  0  0  0  0  0
    8.0990   -2.7312   23.6922 C   0  0  0  0  0  0  0  0  0  0  0  0
    5.7256    0.0370   20.0122 C   0  0  0  0  0  0  0  0  0  0  0  0
    6.2096   -0.0287   18.5941 C   0  0  0  0  0  0  0  0  0  0  0  0
    5.4974    0.7416   17.5220 N   0  0  0  0  0  0  0  0  0  0  0  0
    4.3012    1.5777   17.8682 C   0  0  0  0  0  0  0  0  0  0  0  0
    3.8171    1.6435   19.2865 C   0  0  0  0  0  0  0  0  0  0  0  0
    2.6208    2.4796   19.6327 C   0  0  0  0  0  0  0  0  0  0  0  0
    2.1368    2.5453   21.0509 C   0  0  0  0  0  0  0  0  0  0  0  0
    2.8491    1.7750   22.1229 C   0  0  0  0  0  0  0  0  0  0  0  0
    4.0453    0.9389   21.7767 C   0  0  0  0  0  0  0  0  0  0  0  0
    4.5293    0.8731   20.3585 C   0  0  0  0  0  0  0  0  0  0  0  0
    5.1393   -5.9652   22.6762 C   0  0  0  0  0  0  0  0  0  0  0  0
    3.8782   -6.1059   23.4760 C   0  0  0  0  0  0  0  0  0  0  0  0
    2.6041   -6.7444   23.0081 C   0  0  0  0  0  0  0  0  0  0  0  0
    1.6081   -6.6660   24.1270 N   0  0  0  0  0  0  0  0  0  0  0  0
    2.2668   -5.9790   25.2865 N   0  0  0  0  0  0  0  0  0  0  0  0
    3.6697   -5.6329   24.8841 N   0  0  0  0  0  0  0  0  0  0  0  0
    1.8512   -5.7887   26.1585 H   0  0  0  0  0  0  0  0  0  0  0  0
  2  1  1  0  0  0
  2  3  1  0  0  0
  3  4  1  0  0  0
  4 19  1  0  0  0
 19 20  2  0  0  0
 20 21  1  0  0  0
 21 22  2  0  0  0
 22 23  1  0  0  0
 23 24  2  0  0  0
 24 25  1  0  0  0
 25 26  2  0  0  0
 26 27  1  0  0  0
 27 28  2  0  0  0
  4  5  1  0  0  0
  5  6  2  0  0  0
  5  7  1  0  0  0
  7  8  1  0  0  0
  8  9  1  0  0  0
  9 29  1  0  0  0
 29 30  1  0  0  0
 30 31  1  0  0  0
 31 32  2  0  0  0
 32 33  1  0  0  0
 33 34  1  0  0  0
  9 10  1  0  0  0
 10 11  2  0  0  0
 10 12  1  0  0  0
 12 13  2  0  0  0
 13 14  1  0  0  0
 14 15  2  0  0  0
 15 16  1  0  0  0
 15 17  1  0  0  0
 17 18  2  0  0  0
  7  2  1  0  0  0
 34 30  2  0  0  0
 18 12  1  0  0  0
 28 19  1  0  0  0
 18  7  1  0  0  0
 28 23  1  0  0  0
 33 35  1  0  0  0
M  END
> <minimizedAffinity>
-8.24963

> <CNNscore>
0.4144459069

> <CNNaffinity>
6.4540433884

> <CNN_VS>
2.6748518944

> <CNNaffinity_variance>
0.0270968713

$$$$



 35 40  0  0  0  0  0  0  0  0999 V2000
   10.6497   -1.8600   25.5581 C   0  0  0  0  0  0  0  0  0  0  0  0
    9.1926   -1.9942   25.2280 C   0  0  0  0  0  0  0  0  0  0  0  0
    8.5201   -3.0392   26.0681 C   0  0  0  0  0  0  0  0  0  0  0  0
    7.0762   -3.0983   25.6663 N   0  0  0  0  0  0  0  0  0  0  0  0
    6.8562   -2.0898   24.5779 C   0  0  0  0  0  0  0  0  0  0  0  0
    5.5564   -1.8125   23.8826 O   0  0  0  0  0  0  0  0  0  0  0  0
    8.1642   -1.4074   24.3070 C   0  0  0  0  0  0  0  0  0  0  0  0
    7.0327   -0.9188   23.4522 C   0  0  0  0  0  0  0  0  0  0  0  0
    7.2706    0.1607   22.4383 N   0  0  0  0  0  0  0  0  0  0  0  0
    8.6400    0.7517   22.2793 C   0  0  0  0  0  0  0  0  0  0  0  0
    8.8779    1.8313   21.2654 O   0  0  0  0  0  0  0  0  0  0  0  0
    9.7717    0.2631   23.1342 C   0  0  0  0  0  0  0  0  0  0  0  0
   11.1411    0.8541   22.9752 C   0  0  0  0  0  0  0  0  0  0  0  0
   12.2727    0.3655   23.8300 C   0  0  0  0  0  0  0  0  0  0  0  0
   12.0348   -0.7141   24.8439 C   0  0  0  0  0  0  0  0  0  0  0  0
   13.1664   -1.2027   25.6988 F   0  0  0  0  0  0  0  0  0  0  0  0
   10.6653   -1.3051   25.0029 C   0  0  0  0  0  0  0  0  0  0  0  0
    9.5338   -0.8165   24.1480 C   0  0  0  0  0  0  0  0  0  0  0  0
    6.0349   -4.0065   26.2504 C   0  0  0  0  0  0  0  0  0  0  0  0
    5.5258   -5.1724   25.4560 C   0  0  0  0  0  0  0  0  0  0  0  0
    4.4845   -6.0805   26.0400 N   0  0  0  0  0  0  0  0  0  0  0  0
    3.9525   -5.8226   27.4186 C   0  0  0  0  0  0  0  0  0  0  0  0
    4.4617   -4.6566   28.2130 C   0  0  0  0  0  0  0  0  0  0  0  0
    3.9296   -4.3988   29.5917 C   0  0  0  0  0  0  0  0  0  0  0  0
    4.4389   -3.2327   30.3861 C   0  0  0  0  0  0  0  0  0  0  0  0
    5.4801   -2.3247   29.8020 C   0  0  0  0  0  0  0  0  0  0  0  0
    6.0121   -2.5826   28.4234 C   0  0  0  0  0  0  0  0  0  0  0  0
    5.5029   -3.7485   27.6290 C   0  0  0  0  0  0  0  0  0  0  0  0
    6.1389    0.6493   21.5834 C   0  0  0  0  0  0  0  0  0  0  0  0
    5.8461   -0.0191   20.2730 C   0  0  0  0  0  0  0  0  0  0  0  0
    5.9548    0.6131   18.9171 C   0  0  0  0  0  0  0  0  0  0  0  0
    5.5690   -0.4142   17.8944 N   0  0  0  0  0  0  0  0  0  0  0  0
    5.2220   -1.6814   18.6183 N   0  0  0  0  0  0  0  0  0  0  0  0
    5.3933   -1.4372   20.0883 N   0  0  0  0  0  0  0  0  0  0  0  0
    4.9326   -2.5252   18.2017 H   0  0  0  0  0  0  0  0  0  0  0  0
  2  1  1  0  0  0
  2  3  1  0  0  0
  3  4  1  0  0  0
  4 19  1  0  0  0
 19 20  2  0  0  0
 20 21  1  0  0  0
 21 22  2  0  0  0
 22 23  1  0  0  0
 23 24  2  0  0  0
 24 25  1  0  0  0
 25 26  2  0  0  0
 26 27  1  0  0  0
 27 28  2  0  0  0
  4  5  1  0  0  0
  5  6  2  0  0  0
  5  7  1  0  0  0
  7  8  1  0  0  0
  8  9  1  0  0  0
  9 29  1  0  0  0
 29 30  1  0  0  0
 30 31  1  0  0  0
 31 32  2  0  0  0
 32 33  1  0  0  0
 33 34  1  0  0  0
  9 10  1  0  0  0
 10 11  2  0  0  0
 10 12  1  0  0  0
 12 13  2  0  0  0
 13 14  1  0  0  0
 14 15  2  0  0  0
 15 16  1  0  0  0
 15 17  1  0  0  0
 17 18  2  0  0  0
  7  2  1  0  0  0
 34 30  2  0  0  0
 18 12  1  0  0  0
 28 19  1  0  0  0
 18  7  1  0  0  0
 28 23  1  0  0  0
 33 35  1  0  0  0
M  END
> <minimizedAffinity>
-9.24901

> <CNNscore>
0.3663621843

> <CNNaffinity>
6.3293623924

> <CNN_VS>
2.3188390732

> <CNNaffinity_variance>
0.0914175957

$$$$



 35 40  0  0  0  0  0  0  0  0999 V2000
   10.4371   -3.5044   25.2626 C   0  0  0  0  0  0  0  0  0  0  0  0
    9.1741   -3.2348   24.4996 C   0  0  0  0  0  0  0  0  0  0  0  0
    8.1827   -4.3515   24.6417 C   0  0  0  0  0  0  0  0  0  0  0  0
    6.9617   -3.9911   23.8484 N   0  0  0  0  0  0  0  0  0  0  0  0
    7.1986   -2.6517   23.2160 C   0  0  0  0  0  0  0  0  0  0  0  0
    6.2369   -1.9099   22.3357 O   0  0  0  0  0  0  0  0  0  0  0  0
    8.5659   -2.1843   23.6185 C   0  0  0  0  0  0  0  0  0  0  0  0
    7.8314   -1.2265   22.7279 C   0  0  0  0  0  0  0  0  0  0  0  0
    8.4771    0.0647   22.3208 N   0  0  0  0  0  0  0  0  0  0  0  0
    9.8573    0.3982   22.8042 C   0  0  0  0  0  0  0  0  0  0  0  0
   10.5030    1.6895   22.3971 O   0  0  0  0  0  0  0  0  0  0  0  0
   10.5919   -0.5595   23.6949 C   0  0  0  0  0  0  0  0  0  0  0  0
   11.9721   -0.2261   24.1783 C   0  0  0  0  0  0  0  0  0  0  0  0
   12.7066   -1.1838   25.0689 C   0  0  0  0  0  0  0  0  0  0  0  0
   12.0609   -2.4751   25.4760 C   0  0  0  0  0  0  0  0  0  0  0  0
   12.7954   -3.4328   26.3666 F   0  0  0  0  0  0  0  0  0  0  0  0
   10.6806   -2.8085   24.9926 C   0  0  0  0  0  0  0  0  0  0  0  0
    9.9461   -1.8508   24.1020 C   0  0  0  0  0  0  0  0  0  0  0  0
    5.7217   -4.8238   23.7114 C   0  0  0  0  0  0  0  0  0  0  0  0
    5.3866   -5.4592   22.3947 C   0  0  0  0  0  0  0  0  0  0  0  0
    4.1465   -6.2920   22.2578 N   0  0  0  0  0  0  0  0  0  0  0  0
    3.2416   -6.4893   23.4377 C   0  0  0  0  0  0  0  0  0  0  0  0
    3.5767   -5.8538   24.7545 C   0  0  0  0  0  0  0  0  0  0  0  0
    2.6716   -6.0512   25.9344 C   0  0  0  0  0  0  0  0  0  0  0  0
    3.0068   -5.4157   27.2511 C   0  0  0  0  0  0  0  0  0  0  0  0
    4.2469   -4.5830   27.3880 C   0  0  0  0  0  0  0  0  0  0  0  0
    5.1518   -4.3857   26.2081 C   0  0  0  0  0  0  0  0  0  0  0  0
    4.8167   -5.0211   24.8914 C   0  0  0  0  0  0  0  0  0  0  0  0
    7.7425    1.0225   21.4302 C   0  0  0  0  0  0  0  0  0  0  0  0
    6.8188    0.5021   20.3691 C   0  0  0  0  0  0  0  0  0  0  0  0
    7.2119   -0.3485   19.1978 C   0  0  0  0  0  0  0  0  0  0  0  0
    5.9759   -0.6355   18.3978 N   0  0  0  0  0  0  0  0  0  0  0  0
    4.8189    0.0377   19.0748 N   0  0  0  0  0  0  0  0  0  0  0  0
    5.3399    0.7407   20.2931 N   0  0  0  0  0  0  0  0  0  0  0  0
    3.8821    0.0210   18.7725 H   0  0  0  0  0  0  0  0  0  0  0  0
  2  1  1  0  0  0
  2  3  1  0  0  0
  3  4  1  0  0  0
  4 19  1  0  0  0
 19 20  2  0  0  0
 20 21  1  0  0  0
 21 22  2  0  0  0
 22 23  1  0  0  0
 23 24  2  0  0  0
 24 25  1  0  0  0
 25 26  2  0  0  0
 26 27  1  0  0  0
 27 28  2  0  0  0
  4  5  1  0  0  0
  5  6  2  0  0  0
  5  7  1  0  0  0
  7  8  1  0  0  0
  8  9  1  0  0  0
  9 29  1  0  0  0
 29 30  1  0  0  0
 30 31  1  0  0  0
 31 32  2  0  0  0
 32 33  1  0  0  0
 33 34  1  0  0  0
  9 10  1  0  0  0
 10 11  2  0  0  0
 10 12  1  0  0  0
 12 13  2  0  0  0
 13 14  1  0  0  0
 14 15  2  0  0  0
 15 16  1  0  0  0
 15 17  1  0  0  0
 17 18  2  0  0  0
  7  2  1  0  0  0
 34 30  2  0  0  0
 18 12  1  0  0  0
 28 19  1  0  0  0
 18  7  1  0  0  0
 28 23  1  0  0  0
 33 35  1  0  0  0
M  END
> <minimizedAffinity>
-9.20575

> <CNNscore>
0.3540766537

> <CNNaffinity>
6.5849027634

> <CNN_VS>
2.3315603733

> <CNNaffinity_variance>
0.1062047482

$$$$
