


 24 26  0  0  0  0  0  0  0  0999 V2000
   -6.8700   -5.5218  -25.7729 C   0  0  0  0  0  0  0  0  0  0  0  0
   -6.6050   -6.8433  -26.4315 C   0  0  0  0  0  0  0  0  0  0  0  0
   -7.3569   -4.1165  -25.5782 C   0  0  0  0  0  0  0  0  0  0  0  0
   -7.1129   -3.4118  -24.2767 C   0  0  0  0  0  0  0  0  0  0  0  0
   -6.3820   -4.1124  -23.1700 N   0  0  0  0  0  0  0  0  0  0  0  0
   -6.1380   -3.4077  -21.8685 C   0  0  0  0  0  0  0  0  0  0  0  0
   -5.4071   -4.1083  -20.7618 O   0  0  0  0  0  0  0  0  0  0  0  0
   -5.8951   -5.5178  -23.3647 C   0  0  0  0  0  0  0  0  0  0  0  0
   -6.1391   -6.2225  -24.6662 C   0  0  0  0  0  0  0  0  0  0  0  0
   -7.5089   -5.2801  -27.1084 C   0  0  0  0  0  0  0  0  0  0  0  0
   -8.3472   -7.0383  -28.8278 C   0  0  0  0  0  0  0  0  0  0  0  0
   -8.5825   -6.2030  -27.6042 C   0  0  0  0  0  0  0  0  0  0  0  0
   -9.8912   -6.2905  -26.8766 C   0  0  0  0  0  0  0  0  0  0  0  0
   -6.6249   -2.0023  -21.6738 C   0  0  0  0  0  0  0  0  0  0  0  0
   -6.1226   -1.1878  -20.5187 C   0  0  0  0  0  0  0  0  0  0  0  0
   -6.7974   -1.2853  -19.1826 C   0  0  0  0  0  0  0  0  0  0  0  0
   -6.2951   -0.4708  -18.0275 N   0  0  0  0  0  0  0  0  0  0  0  0
   -5.1180    0.4411  -18.2084 C   0  0  0  0  0  0  0  0  0  0  0  0
   -4.4432    0.5386  -19.5446 C   0  0  0  0  0  0  0  0  0  0  0  0
   -3.2661    1.4506  -19.7255 C   0  0  0  0  0  0  0  0  0  0  0  0
   -2.5913    1.5480  -21.0616 C   0  0  0  0  0  0  0  0  0  0  0  0
   -3.0936    0.7335  -22.2167 C   0  0  0  0  0  0  0  0  0  0  0  0
   -4.2707   -0.1784  -22.0357 C   0  0  0  0  0  0  0  0  0  0  0  0
   -4.9455   -0.2759  -20.6997 C   0  0  0  0  0  0  0  0  0  0  0  0
 11 12  1  0  0  0
 12 13  1  0  0  0
 12 10  1  0  0  0
 10  1  1  0  0  0
  1  2  1  0  0  0
  1  3  1  0  0  0
  3  4  1  0  0  0
  4  5  1  0  0  0
  5  6  1  0  0  0
  6  7  2  0  0  0
  6 14  1  0  0  0
 14 15  1  0  0  0
 15 16  2  0  0  0
 16 17  1  0  0  0
 17 18  2  0  0  0
 18 19  1  0  0  0
 19 20  2  0  0  0
 20 21  1  0  0  0
 21 22  2  0  0  0
 22 23  1  0  0  0
 23 24  2  0  0  0
  5  8  1  0  0  0
  8  9  1  0  0  0
  9  1  1  0  0  0
 24 15  1  0  0  0
 24 19  1  0  0  0
M  END
> <minimizedAffinity>
-7.08554

> <CNNscore>
0.7131231427

> <CNNaffinity>
5.6179823875

> <CNN_VS>
4.0063133240

> <CNNaffinity_variance>
0.1581993550

$$$$



 24 26  0  0  0  0  0  0  0  0999 V2000
   -9.9920   -2.2632  -23.5624 C   0  0  0  0  0  0  0  0  0  0  0  0
  -10.6258   -3.3294  -24.4060 C   0  0  0  0  0  0  0  0  0  0  0  0
   -9.7660   -0.9332  -22.9069 C   0  0  0  0  0  0  0  0  0  0  0  0
   -8.5858   -0.7334  -22.0029 C   0  0  0  0  0  0  0  0  0  0  0  0
   -7.6315   -1.8636  -21.7545 N   0  0  0  0  0  0  0  0  0  0  0  0
   -6.4513   -1.6638  -20.8505 C   0  0  0  0  0  0  0  0  0  0  0  0
   -5.4970   -2.7942  -20.6020 O   0  0  0  0  0  0  0  0  0  0  0  0
   -7.8574   -3.1938  -22.4100 C   0  0  0  0  0  0  0  0  0  0  0  0
   -9.0377   -3.3936  -23.3140 C   0  0  0  0  0  0  0  0  0  0  0  0
  -11.1664   -1.5032  -24.1038 C   0  0  0  0  0  0  0  0  0  0  0  0
  -13.2345   -0.0903  -23.4136 C   0  0  0  0  0  0  0  0  0  0  0  0
  -12.3963   -1.3252  -23.2639 C   0  0  0  0  0  0  0  0  0  0  0  0
  -12.7881   -2.3821  -22.2743 C   0  0  0  0  0  0  0  0  0  0  0  0
   -6.2254   -0.3338  -20.1949 C   0  0  0  0  0  0  0  0  0  0  0  0
   -4.9007    0.3558  -20.3346 C   0  0  0  0  0  0  0  0  0  0  0  0
   -4.2853    1.0445  -19.1526 C   0  0  0  0  0  0  0  0  0  0  0  0
   -2.9606    1.7341  -19.2922 N   0  0  0  0  0  0  0  0  0  0  0  0
   -2.2512    1.7351  -20.6138 C   0  0  0  0  0  0  0  0  0  0  0  0
   -2.8665    1.0464  -21.7959 C   0  0  0  0  0  0  0  0  0  0  0  0
   -2.1571    1.0474  -23.1175 C   0  0  0  0  0  0  0  0  0  0  0  0
   -2.7724    0.3588  -24.2995 C   0  0  0  0  0  0  0  0  0  0  0  0
   -4.0972   -0.3309  -24.1598 C   0  0  0  0  0  0  0  0  0  0  0  0
   -4.8066   -0.3318  -22.8382 C   0  0  0  0  0  0  0  0  0  0  0  0
   -4.1913    0.3568  -21.6563 C   0  0  0  0  0  0  0  0  0  0  0  0
 11 12  1  0  0  0
 12 13  1  0  0  0
 12 10  1  0  0  0
 10  1  1  0  0  0
  1  2  1  0  0  0
  1  3  1  0  0  0
  3  4  1  0  0  0
  4  5  1  0  0  0
  5  6  1  0  0  0
  6  7  2  0  0  0
  6 14  1  0  0  0
 14 15  1  0  0  0
 15 16  2  0  0  0
 16 17  1  0  0  0
 17 18  2  0  0  0
 18 19  1  0  0  0
 19 20  2  0  0  0
 20 21  1  0  0  0
 21 22  2  0  0  0
 22 23  1  0  0  0
 23 24  2  0  0  0
  5  8  1  0  0  0
  8  9  1  0  0  0
  9  1  1  0  0  0
 24 15  1  0  0  0
 24 19  1  0  0  0
M  END
> <minimizedAffinity>
-6.54052

> <CNNscore>
0.6015200615

> <CNNaffinity>
5.4144754410

> <CNN_VS>
3.2569155693

> <CNNaffinity_variance>
0.3610407710

$$$$



 24 26  0  0  0  0  0  0  0  0999 V2000
   -9.0718   -5.3928  -25.2007 C   0  0  0  0  0  0  0  0  0  0  0  0
  -10.2493   -5.6166  -26.1026 C   0  0  0  0  0  0  0  0  0  0  0  0
   -7.7566   -5.6217  -24.5168 C   0  0  0  0  0  0  0  0  0  0  0  0
   -7.2469   -4.6250  -23.5184 C   0  0  0  0  0  0  0  0  0  0  0  0
   -8.0524   -3.3994  -23.2039 N   0  0  0  0  0  0  0  0  0  0  0  0
   -7.5427   -2.4026  -22.2056 C   0  0  0  0  0  0  0  0  0  0  0  0
   -8.3483   -1.1769  -21.8911 O   0  0  0  0  0  0  0  0  0  0  0  0
   -9.3677   -3.1704  -23.8878 C   0  0  0  0  0  0  0  0  0  0  0  0
   -9.8774   -4.1672  -24.8862 C   0  0  0  0  0  0  0  0  0  0  0  0
   -8.6752   -6.6962  -25.8284 C   0  0  0  0  0  0  0  0  0  0  0  0
   -6.2982   -6.7250  -26.8769 C   0  0  0  0  0  0  0  0  0  0  0  0
   -7.7894   -6.7068  -27.0388 C   0  0  0  0  0  0  0  0  0  0  0  0
   -8.3947   -6.6993  -28.4112 C   0  0  0  0  0  0  0  0  0  0  0  0
   -6.2275   -2.6315  -21.5217 C   0  0  0  0  0  0  0  0  0  0  0  0
   -5.7790   -1.7063  -20.4295 C   0  0  0  0  0  0  0  0  0  0  0  0
   -6.2284   -1.9393  -19.0175 C   0  0  0  0  0  0  0  0  0  0  0  0
   -5.7799   -1.0140  -17.9254 N   0  0  0  0  0  0  0  0  0  0  0  0
   -4.8821    0.1442  -18.2452 C   0  0  0  0  0  0  0  0  0  0  0  0
   -4.4327    0.3773  -19.6572 C   0  0  0  0  0  0  0  0  0  0  0  0
   -3.5348    1.5355  -19.9770 C   0  0  0  0  0  0  0  0  0  0  0  0
   -3.0855    1.7685  -21.3890 C   0  0  0  0  0  0  0  0  0  0  0  0
   -3.5339    0.8433  -22.4812 C   0  0  0  0  0  0  0  0  0  0  0  0
   -4.4318   -0.3150  -22.1614 C   0  0  0  0  0  0  0  0  0  0  0  0
   -4.8811   -0.5480  -20.7494 C   0  0  0  0  0  0  0  0  0  0  0  0
 11 12  1  0  0  0
 12 13  1  0  0  0
 12 10  1  0  0  0
 10  1  1  0  0  0
  1  2  1  0  0  0
  1  3  1  0  0  0
  3  4  1  0  0  0
  4  5  1  0  0  0
  5  6  1  0  0  0
  6  7  2  0  0  0
  6 14  1  0  0  0
 14 15  1  0  0  0
 15 16  2  0  0  0
 16 17  1  0  0  0
 17 18  2  0  0  0
 18 19  1  0  0  0
 19 20  2  0  0  0
 20 21  1  0  0  0
 21 22  2  0  0  0
 22 23  1  0  0  0
 23 24  2  0  0  0
  5  8  1  0  0  0
  8  9  1  0  0  0
  9  1  1  0  0  0
 24 15  1  0  0  0
 24 19  1  0  0  0
M  END
> <minimizedAffinity>
-7.27626

> <CNNscore>
0.5817896724

> <CNNaffinity>
5.4420266151

> <CNN_VS>
3.1661148071

> <CNNaffinity_variance>
0.3071352839

$$$$



 24 26  0  0  0  0  0  0  0  0999 V2000
   -6.7664   -5.5234  -24.3809 C   0  0  0  0  0  0  0  0  0  0  0  0
   -6.5752   -6.9192  -24.8959 C   0  0  0  0  0  0  0  0  0  0  0  0
   -7.1946   -4.0869  -24.3279 C   0  0  0  0  0  0  0  0  0  0  0  0
   -6.8741   -3.2526  -23.1232 C   0  0  0  0  0  0  0  0  0  0  0  0
   -6.1254   -3.8549  -21.9715 N   0  0  0  0  0  0  0  0  0  0  0  0
   -5.8048   -3.0207  -20.7668 C   0  0  0  0  0  0  0  0  0  0  0  0
   -5.0561   -3.6231  -19.6150 O   0  0  0  0  0  0  0  0  0  0  0  0
   -5.6971   -5.2916  -22.0244 C   0  0  0  0  0  0  0  0  0  0  0  0
   -6.0177   -6.1258  -23.2291 C   0  0  0  0  0  0  0  0  0  0  0  0
   -7.4488   -5.4058  -25.7115 C   0  0  0  0  0  0  0  0  0  0  0  0
   -9.8859   -4.5140  -25.5888 C   0  0  0  0  0  0  0  0  0  0  0  0
   -8.9259   -5.6431  -25.8205 C   0  0  0  0  0  0  0  0  0  0  0  0
   -9.4430   -7.0093  -26.1611 C   0  0  0  0  0  0  0  0  0  0  0  0
   -6.2330   -1.5841  -20.7138 C   0  0  0  0  0  0  0  0  0  0  0  0
   -5.2270   -0.5121  -20.4161 C   0  0  0  0  0  0  0  0  0  0  0  0
   -5.1024    0.0339  -19.0246 C   0  0  0  0  0  0  0  0  0  0  0  0
   -4.0963    1.1059  -18.7268 N   0  0  0  0  0  0  0  0  0  0  0  0
   -3.2149    1.6319  -19.8205 C   0  0  0  0  0  0  0  0  0  0  0  0
   -3.3395    1.0860  -21.2121 C   0  0  0  0  0  0  0  0  0  0  0  0
   -2.4581    1.6121  -22.3059 C   0  0  0  0  0  0  0  0  0  0  0  0
   -2.5828    1.0661  -23.6974 C   0  0  0  0  0  0  0  0  0  0  0  0
   -3.5888   -0.0059  -23.9952 C   0  0  0  0  0  0  0  0  0  0  0  0
   -4.4702   -0.5320  -22.9014 C   0  0  0  0  0  0  0  0  0  0  0  0
   -4.3456    0.0140  -21.5099 C   0  0  0  0  0  0  0  0  0  0  0  0
 11 12  1  0  0  0
 12 13  1  0  0  0
 12 10  1  0  0  0
 10  1  1  0  0  0
  1  2  1  0  0  0
  1  3  1  0  0  0
  3  4  1  0  0  0
  4  5  1  0  0  0
  5  6  1  0  0  0
  6  7  2  0  0  0
  6 14  1  0  0  0
 14 15  1  0  0  0
 15 16  2  0  0  0
 16 17  1  0  0  0
 17 18  2  0  0  0
 18 19  1  0  0  0
 19 20  2  0  0  0
 20 21  1  0  0  0
 21 22  2  0  0  0
 22 23  1  0  0  0
 23 24  2  0  0  0
  5  8  1  0  0  0
  8  9  1  0  0  0
  9  1  1  0  0  0
 24 15  1  0  0  0
 24 19  1  0  0  0
M  END
> <minimizedAffinity>
-6.56229

> <CNNscore>
0.5739930868

> <CNNaffinity>
5.3112516403

> <CNN_VS>
3.0486216545

> <CNNaffinity_variance>
0.1995902508

$$$$



 24 26  0  0  0  0  0  0  0  0999 V2000
  -12.2831    0.0777  -23.3658 C   0  0  0  0  0  0  0  0  0  0  0  0
  -13.6779   -0.4410  -23.5551 C   0  0  0  0  0  0  0  0  0  0  0  0
  -11.1307    1.0364  -23.3141 C   0  0  0  0  0  0  0  0  0  0  0  0
   -9.7650    0.5477  -22.9320 C   0  0  0  0  0  0  0  0  0  0  0  0
   -9.5517   -0.8998  -22.6016 N   0  0  0  0  0  0  0  0  0  0  0  0
   -8.1860   -1.3885  -22.2194 C   0  0  0  0  0  0  0  0  0  0  0  0
   -7.9727   -2.8361  -21.8890 O   0  0  0  0  0  0  0  0  0  0  0  0
  -10.7041   -1.8586  -22.6533 C   0  0  0  0  0  0  0  0  0  0  0  0
  -12.0698   -1.3699  -23.0354 C   0  0  0  0  0  0  0  0  0  0  0  0
  -12.9808    1.3451  -23.7620 C   0  0  0  0  0  0  0  0  0  0  0  0
  -11.7554    3.6255  -23.9816 C   0  0  0  0  0  0  0  0  0  0  0  0
  -12.5549    2.6537  -23.1652 C   0  0  0  0  0  0  0  0  0  0  0  0
  -12.9286    2.9905  -21.7521 C   0  0  0  0  0  0  0  0  0  0  0  0
   -7.0336   -0.4297  -22.1677 C   0  0  0  0  0  0  0  0  0  0  0  0
   -6.3268   -0.1760  -20.8693 C   0  0  0  0  0  0  0  0  0  0  0  0
   -6.9149   -0.6790  -19.5844 C   0  0  0  0  0  0  0  0  0  0  0  0
   -6.2080   -0.4253  -18.2859 N   0  0  0  0  0  0  0  0  0  0  0  0
   -4.9131    0.3315  -18.2724 C   0  0  0  0  0  0  0  0  0  0  0  0
   -4.3249    0.8347  -19.5573 C   0  0  0  0  0  0  0  0  0  0  0  0
   -3.0299    1.5915  -19.5438 C   0  0  0  0  0  0  0  0  0  0  0  0
   -2.4418    2.0946  -20.8287 C   0  0  0  0  0  0  0  0  0  0  0  0
   -3.1487    1.8408  -22.1271 C   0  0  0  0  0  0  0  0  0  0  0  0
   -4.4436    1.0840  -22.1407 C   0  0  0  0  0  0  0  0  0  0  0  0
   -5.0317    0.5809  -20.8558 C   0  0  0  0  0  0  0  0  0  0  0  0
 11 12  1  0  0  0
 12 13  1  0  0  0
 12 10  1  0  0  0
 10  1  1  0  0  0
  1  2  1  0  0  0
  1  3  1  0  0  0
  3  4  1  0  0  0
  4  5  1  0  0  0
  5  6  1  0  0  0
  6  7  2  0  0  0
  6 14  1  0  0  0
 14 15  1  0  0  0
 15 16  2  0  0  0
 16 17  1  0  0  0
 17 18  2  0  0  0
 18 19  1  0  0  0
 19 20  2  0  0  0
 20 21  1  0  0  0
 21 22  2  0  0  0
 22 23  1  0  0  0
 23 24  2  0  0  0
  5  8  1  0  0  0
  8  9  1  0  0  0
  9  1  1  0  0  0
 24 15  1  0  0  0
 24 19  1  0  0  0
M  END
> <minimizedAffinity>
-7.35498

> <CNNscore>
0.5277770162

> <CNNaffinity>
5.5715131760

> <CNN_VS>
2.9405167103

> <CNNaffinity_variance>
0.3616568744

$$$$



 24 26  0  0  0  0  0  0  0  0999 V2000
  -11.4894    0.9723  -23.6087 C   0  0  0  0  0  0  0  0  0  0  0  0
  -12.9587    1.0225  -23.9065 C   0  0  0  0  0  0  0  0  0  0  0  0
  -10.0762    1.4315  -23.4044 C   0  0  0  0  0  0  0  0  0  0  0  0
   -9.0119    0.4413  -23.0346 C   0  0  0  0  0  0  0  0  0  0  0  0
   -9.3608   -1.0081  -22.8692 N   0  0  0  0  0  0  0  0  0  0  0  0
   -8.2965   -1.9984  -22.4994 C   0  0  0  0  0  0  0  0  0  0  0  0
   -8.6455   -3.4478  -22.3341 O   0  0  0  0  0  0  0  0  0  0  0  0
  -10.7741   -1.4674  -23.0736 C   0  0  0  0  0  0  0  0  0  0  0  0
  -11.8384   -0.4772  -23.4434 C   0  0  0  0  0  0  0  0  0  0  0  0
  -11.6507    2.4392  -23.8775 C   0  0  0  0  0  0  0  0  0  0  0  0
  -13.8157    3.8520  -24.1357 C   0  0  0  0  0  0  0  0  0  0  0  0
  -12.7907    3.1938  -23.2603 C   0  0  0  0  0  0  0  0  0  0  0  0
  -12.9058    3.2902  -21.7679 C   0  0  0  0  0  0  0  0  0  0  0  0
   -6.8832   -1.5392  -22.2950 C   0  0  0  0  0  0  0  0  0  0  0  0
   -6.4637   -0.9689  -20.9726 C   0  0  0  0  0  0  0  0  0  0  0  0
   -7.3017   -1.2100  -19.7521 C   0  0  0  0  0  0  0  0  0  0  0  0
   -6.8822   -0.6398  -18.4297 N   0  0  0  0  0  0  0  0  0  0  0  0
   -5.6247    0.1715  -18.3277 C   0  0  0  0  0  0  0  0  0  0  0  0
   -4.7867    0.4126  -19.5482 C   0  0  0  0  0  0  0  0  0  0  0  0
   -3.5292    1.2240  -19.4462 C   0  0  0  0  0  0  0  0  0  0  0  0
   -2.6912    1.4651  -20.6667 C   0  0  0  0  0  0  0  0  0  0  0  0
   -3.1107    0.8948  -21.9892 C   0  0  0  0  0  0  0  0  0  0  0  0
   -4.3682    0.0835  -22.0911 C   0  0  0  0  0  0  0  0  0  0  0  0
   -5.2062   -0.1576  -20.8707 C   0  0  0  0  0  0  0  0  0  0  0  0
 11 12  1  0  0  0
 12 13  1  0  0  0
 12 10  1  0  0  0
 10  1  1  0  0  0
  1  2  1  0  0  0
  1  3  1  0  0  0
  3  4  1  0  0  0
  4  5  1  0  0  0
  5  6  1  0  0  0
  6  7  2  0  0  0
  6 14  1  0  0  0
 14 15  1  0  0  0
 15 16  2  0  0  0
 16 17  1  0  0  0
 17 18  2  0  0  0
 18 19  1  0  0  0
 19 20  2  0  0  0
 20 21  1  0  0  0
 21 22  2  0  0  0
 22 23  1  0  0  0
 23 24  2  0  0  0
  5  8  1  0  0  0
  8  9  1  0  0  0
  9  1  1  0  0  0
 24 15  1  0  0  0
 24 19  1  0  0  0
M  END
> <minimizedAffinity>
-7.50183

> <CNNscore>
0.4774786830

> <CNNaffinity>
5.4869360924

> <CNN_VS>
2.6198949814

> <CNNaffinity_variance>
0.2765456736

$$$$



 24 26  0  0  0  0  0  0  0  0999 V2000
   -9.9674    1.5214  -23.7395 C   0  0  0  0  0  0  0  0  0  0  0  0
  -10.6040    2.4356  -24.7440 C   0  0  0  0  0  0  0  0  0  0  0  0
   -9.7472    0.7637  -22.4638 C   0  0  0  0  0  0  0  0  0  0  0  0
   -8.5490   -0.1268  -22.3177 C   0  0  0  0  0  0  0  0  0  0  0  0
   -7.5710   -0.2595  -23.4471 N   0  0  0  0  0  0  0  0  0  0  0  0
   -6.3727   -1.1499  -23.3010 C   0  0  0  0  0  0  0  0  0  0  0  0
   -5.3946   -1.2826  -24.4305 O   0  0  0  0  0  0  0  0  0  0  0  0
   -7.7911    0.4983  -24.7228 C   0  0  0  0  0  0  0  0  0  0  0  0
   -8.9893    1.3888  -24.8690 C   0  0  0  0  0  0  0  0  0  0  0  0
  -11.1666    1.9716  -22.9588 C   0  0  0  0  0  0  0  0  0  0  0  0
  -13.5732    2.6954  -23.6179 C   0  0  0  0  0  0  0  0  0  0  0  0
  -12.5454    1.6186  -23.4324 C   0  0  0  0  0  0  0  0  0  0  0  0
  -12.8965    0.1891  -23.7204 C   0  0  0  0  0  0  0  0  0  0  0  0
   -6.1526   -1.9077  -22.0253 C   0  0  0  0  0  0  0  0  0  0  0  0
   -5.8166   -1.1701  -20.7632 C   0  0  0  0  0  0  0  0  0  0  0  0
   -6.6077   -1.4220  -19.5140 C   0  0  0  0  0  0  0  0  0  0  0  0
   -6.2716   -0.6844  -18.2519 N   0  0  0  0  0  0  0  0  0  0  0  0
   -5.1445    0.3052  -18.2390 C   0  0  0  0  0  0  0  0  0  0  0  0
   -4.3533    0.5572  -19.4882 C   0  0  0  0  0  0  0  0  0  0  0  0
   -3.2261    1.5468  -19.4754 C   0  0  0  0  0  0  0  0  0  0  0  0
   -2.4350    1.7987  -20.7246 C   0  0  0  0  0  0  0  0  0  0  0  0
   -2.7711    1.0611  -21.9867 C   0  0  0  0  0  0  0  0  0  0  0  0
   -3.8982    0.0715  -21.9996 C   0  0  0  0  0  0  0  0  0  0  0  0
   -4.6893   -0.1804  -20.7504 C   0  0  0  0  0  0  0  0  0  0  0  0
 11 12  1  0  0  0
 12 13  1  0  0  0
 12 10  1  0  0  0
 10  1  1  0  0  0
  1  2  1  0  0  0
  1  3  1  0  0  0
  3  4  1  0  0  0
  4  5  1  0  0  0
  5  6  1  0  0  0
  6  7  2  0  0  0
  6 14  1  0  0  0
 14 15  1  0  0  0
 15 16  2  0  0  0
 16 17  1  0  0  0
 17 18  2  0  0  0
 18 19  1  0  0  0
 19 20  2  0  0  0
 20 21  1  0  0  0
 21 22  2  0  0  0
 22 23  1  0  0  0
 23 24  2  0  0  0
  5  8  1  0  0  0
  8  9  1  0  0  0
  9  1  1  0  0  0
 24 15  1  0  0  0
 24 19  1  0  0  0
M  END
> <minimizedAffinity>
-6.87652

> <CNNscore>
0.3919553757

> <CNNaffinity>
5.2025814056

> <CNN_VS>
2.0391798019

> <CNNaffinity_variance>
0.1581315547

$$$$



 24 26  0  0  0  0  0  0  0  0999 V2000
  -12.0450    2.2258  -23.4531 C   0  0  0  0  0  0  0  0  0  0  0  0
  -13.3167    2.9798  -23.1994 C   0  0  0  0  0  0  0  0  0  0  0  0
  -10.5937    1.9605  -23.7235 C   0  0  0  0  0  0  0  0  0  0  0  0
  -10.1014    0.5499  -23.8575 C   0  0  0  0  0  0  0  0  0  0  0  0
  -11.0604   -0.5953  -23.7211 N   0  0  0  0  0  0  0  0  0  0  0  0
  -10.5681   -2.0059  -23.8552 C   0  0  0  0  0  0  0  0  0  0  0  0
  -11.5273   -3.1511  -23.7188 O   0  0  0  0  0  0  0  0  0  0  0  0
  -12.5119   -0.3300  -23.4507 C   0  0  0  0  0  0  0  0  0  0  0  0
  -13.0042    1.0805  -23.3167 C   0  0  0  0  0  0  0  0  0  0  0  0
  -11.5276    3.6329  -23.5014 C   0  0  0  0  0  0  0  0  0  0  0  0
  -12.7829    5.7515  -24.3295 C   0  0  0  0  0  0  0  0  0  0  0  0
  -11.9392    4.5454  -24.6185 C   0  0  0  0  0  0  0  0  0  0  0  0
  -11.5071    4.2519  -26.0245 C   0  0  0  0  0  0  0  0  0  0  0  0
   -9.1168   -2.2712  -24.1255 C   0  0  0  0  0  0  0  0  0  0  0  0
   -8.5916   -3.6758  -24.0888 C   0  0  0  0  0  0  0  0  0  0  0  0
   -7.9134   -4.1908  -22.8540 C   0  0  0  0  0  0  0  0  0  0  0  0
   -7.3882   -5.5954  -22.8173 N   0  0  0  0  0  0  0  0  0  0  0  0
   -7.5411   -6.4849  -24.0153 C   0  0  0  0  0  0  0  0  0  0  0  0
   -8.2194   -5.9699  -25.2502 C   0  0  0  0  0  0  0  0  0  0  0  0
   -8.3723   -6.8594  -26.4482 C   0  0  0  0  0  0  0  0  0  0  0  0
   -9.0505   -6.3443  -27.6830 C   0  0  0  0  0  0  0  0  0  0  0  0
   -9.5758   -4.9398  -27.7197 C   0  0  0  0  0  0  0  0  0  0  0  0
   -9.4228   -4.0502  -26.5217 C   0  0  0  0  0  0  0  0  0  0  0  0
   -8.7446   -4.5653  -25.2869 C   0  0  0  0  0  0  0  0  0  0  0  0
 11 12  1  0  0  0
 12 13  1  0  0  0
 12 10  1  0  0  0
 10  1  1  0  0  0
  1  2  1  0  0  0
  1  3  1  0  0  0
  3  4  1  0  0  0
  4  5  1  0  0  0
  5  6  1  0  0  0
  6  7  2  0  0  0
  6 14  1  0  0  0
 14 15  1  0  0  0
 15 16  2  0  0  0
 16 17  1  0  0  0
 17 18  2  0  0  0
 18 19  1  0  0  0
 19 20  2  0  0  0
 20 21  1  0  0  0
 21 22  2  0  0  0
 22 23  1  0  0  0
 23 24  2  0  0  0
  5  8  1  0  0  0
  8  9  1  0  0  0
  9  1  1  0  0  0
 24 15  1  0  0  0
 24 19  1  0  0  0
M  END
> <minimizedAffinity>
-6.45119

> <CNNscore>
0.3811652362

> <CNNaffinity>
5.2952389717

> <CNN_VS>
2.0183610916

> <CNNaffinity_variance>
0.2428547144

$$$$



 24 26  0  0  0  0  0  0  0  0999 V2000
   -6.5393   -4.9299  -24.1709 C   0  0  0  0  0  0  0  0  0  0  0  0
   -6.7047   -6.3101  -24.7347 C   0  0  0  0  0  0  0  0  0  0  0  0
   -6.5068   -3.4322  -24.0968 C   0  0  0  0  0  0  0  0  0  0  0  0
   -6.1493   -2.7525  -22.8083 C   0  0  0  0  0  0  0  0  0  0  0  0
   -5.8244   -3.5707  -21.5938 N   0  0  0  0  0  0  0  0  0  0  0  0
   -5.4669   -2.8911  -20.3053 C   0  0  0  0  0  0  0  0  0  0  0  0
   -5.1420   -3.7093  -19.0907 O   0  0  0  0  0  0  0  0  0  0  0  0
   -5.8569   -5.0686  -21.6678 C   0  0  0  0  0  0  0  0  0  0  0  0
   -6.2144   -5.7482  -22.9563 C   0  0  0  0  0  0  0  0  0  0  0  0
   -6.9217   -4.5911  -25.5812 C   0  0  0  0  0  0  0  0  0  0  0  0
   -9.4577   -4.2661  -25.1195 C   0  0  0  0  0  0  0  0  0  0  0  0
   -8.3494   -4.7200  -26.0228 C   0  0  0  0  0  0  0  0  0  0  0  0
   -8.6689   -5.3027  -27.3675 C   0  0  0  0  0  0  0  0  0  0  0  0
   -5.4344   -1.3933  -20.2312 C   0  0  0  0  0  0  0  0  0  0  0  0
   -6.5255   -0.5868  -20.8707 C   0  0  0  0  0  0  0  0  0  0  0  0
   -7.9162   -1.1422  -20.9574 C   0  0  0  0  0  0  0  0  0  0  0  0
   -9.0074   -0.3358  -21.5969 N   0  0  0  0  0  0  0  0  0  0  0  0
   -8.7079    1.0261  -22.1497 C   0  0  0  0  0  0  0  0  0  0  0  0
   -7.3172    1.5815  -22.0631 C   0  0  0  0  0  0  0  0  0  0  0  0
   -7.0177    2.9433  -22.6160 C   0  0  0  0  0  0  0  0  0  0  0  0
   -5.6270    3.4987  -22.5293 C   0  0  0  0  0  0  0  0  0  0  0  0
   -4.5358    2.6922  -21.8898 C   0  0  0  0  0  0  0  0  0  0  0  0
   -4.8353    1.3304  -21.3370 C   0  0  0  0  0  0  0  0  0  0  0  0
   -6.2260    0.7751  -21.4236 C   0  0  0  0  0  0  0  0  0  0  0  0
 11 12  1  0  0  0
 12 13  1  0  0  0
 12 10  1  0  0  0
 10  1  1  0  0  0
  1  2  1  0  0  0
  1  3  1  0  0  0
  3  4  1  0  0  0
  4  5  1  0  0  0
  5  6  1  0  0  0
  6  7  2  0  0  0
  6 14  1  0  0  0
 14 15  1  0  0  0
 15 16  2  0  0  0
 16 17  1  0  0  0
 17 18  2  0  0  0
 18 19  1  0  0  0
 19 20  2  0  0  0
 20 21  1  0  0  0
 21 22  2  0  0  0
 22 23  1  0  0  0
 23 24  2  0  0  0
  5  8  1  0  0  0
  8  9  1  0  0  0
  9  1  1  0  0  0
 24 15  1  0  0  0
 24 19  1  0  0  0
M  END
> <minimizedAffinity>
-6.38169

> <CNNscore>
0.3506893516

> <CNNaffinity>
5.3684263229

> <CNN_VS>
1.8826498985

> <CNNaffinity_variance>
0.0937458798

$$$$
