


 24 26  0  0  0  0  0  0  0  0999 V2000
   10.1916   -2.3185   24.9827 C   0  0  0  0  0  0  0  0  0  0  0  0
   10.7927   -3.5095   25.6685 C   0  0  0  0  0  0  0  0  0  0  0  0
    9.9900   -0.8992   24.5412 C   0  0  0  0  0  0  0  0  0  0  0  0
    8.8469   -0.5509   23.6346 C   0  0  0  0  0  0  0  0  0  0  0  0
    7.9053   -1.6219   23.1696 N   0  0  0  0  0  0  0  0  0  0  0  0
    6.7621   -1.2737   22.2631 C   0  0  0  0  0  0  0  0  0  0  0  0
    5.8205   -2.3448   21.7980 O   0  0  0  0  0  0  0  0  0  0  0  0
    8.1068   -3.0413   23.6111 C   0  0  0  0  0  0  0  0  0  0  0  0
    9.2500   -3.3896   24.5177 C   0  0  0  0  0  0  0  0  0  0  0  0
   11.3420   -1.6611   25.6859 C   0  0  0  0  0  0  0  0  0  0  0  0
   13.0657   -1.6505   23.7420 C   0  0  0  0  0  0  0  0  0  0  0  0
   12.7423   -1.8698   25.1902 C   0  0  0  0  0  0  0  0  0  0  0  0
   13.8190   -2.2980   26.1427 C   0  0  0  0  0  0  0  0  0  0  0  0
    6.5605    0.1456   21.8215 C   0  0  0  0  0  0  0  0  0  0  0  0
    5.9797    0.4351   20.4692 C   0  0  0  0  0  0  0  0  0  0  0  0
    6.6988   -0.0148   19.2321 C   0  0  0  0  0  0  0  0  0  0  0  0
    6.1180    0.2747   17.8798 N   0  0  0  0  0  0  0  0  0  0  0  0
    4.8180    1.0140   17.7645 C   0  0  0  0  0  0  0  0  0  0  0  0
    4.0987    1.4639   19.0016 C   0  0  0  0  0  0  0  0  0  0  0  0
    2.7987    2.2032   18.8863 C   0  0  0  0  0  0  0  0  0  0  0  0
    2.0795    2.6530   20.1234 C   0  0  0  0  0  0  0  0  0  0  0  0
    2.6604    2.3635   21.4757 C   0  0  0  0  0  0  0  0  0  0  0  0
    3.9604    1.6242   21.5910 C   0  0  0  0  0  0  0  0  0  0  0  0
    4.6796    1.1744   20.3539 C   0  0  0  0  0  0  0  0  0  0  0  0
 11 12  1  0  0  0
 12 13  1  0  0  0
 12 10  1  0  0  0
 10  1  1  0  0  0
  1  2  1  0  0  0
  1  3  1  0  0  0
  3  4  1  0  0  0
  4  5  1  0  0  0
  5  6  1  0  0  0
  6  7  2  0  0  0
  6 14  1  0  0  0
 14 15  1  0  0  0
 15 16  2  0  0  0
 16 17  1  0  0  0
 17 18  2  0  0  0
 18 19  1  0  0  0
 19 20  2  0  0  0
 20 21  1  0  0  0
 21 22  2  0  0  0
 22 23  1  0  0  0
 23 24  2  0  0  0
  5  8  1  0  0  0
  8  9  1  0  0  0
  9  1  1  0  0  0
 24 15  1  0  0  0
 24 19  1  0  0  0
M  END
> <minimizedAffinity>
-7.69502

> <CNNscore>
0.7717062831

> <CNNaffinity>
5.9109878540

> <CNN_VS>
4.5615463257

> <CNNaffinity_variance>
0.0260305796

$$$$



 24 26  0  0  0  0  0  0  0  0999 V2000
   11.3462   -1.4535   24.2355 C   0  0  0  0  0  0  0  0  0  0  0  0
   12.6072   -1.0946   24.9643 C   0  0  0  0  0  0  0  0  0  0  0  0
   10.1913   -2.2690   23.7342 C   0  0  0  0  0  0  0  0  0  0  0  0
    9.1690   -1.6454   22.8309 C   0  0  0  0  0  0  0  0  0  0  0  0
    9.3016   -0.2064   22.4288 N   0  0  0  0  0  0  0  0  0  0  0  0
    8.2793    0.4172   21.5255 C   0  0  0  0  0  0  0  0  0  0  0  0
    8.4119    1.8562   21.1234 O   0  0  0  0  0  0  0  0  0  0  0  0
   10.4565    0.6091   22.9300 C   0  0  0  0  0  0  0  0  0  0  0  0
   11.4788   -0.0145   23.8334 C   0  0  0  0  0  0  0  0  0  0  0  0
   11.6516   -2.7679   24.8907 C   0  0  0  0  0  0  0  0  0  0  0  0
   11.1567   -4.5276   26.7369 C   0  0  0  0  0  0  0  0  0  0  0  0
   10.8013   -3.2553   26.0262 C   0  0  0  0  0  0  0  0  0  0  0  0
    9.5957   -2.4705   26.4510 C   0  0  0  0  0  0  0  0  0  0  0  0
    7.1244   -0.3982   21.0242 C   0  0  0  0  0  0  0  0  0  0  0  0
    6.2479    0.1359   19.9303 C   0  0  0  0  0  0  0  0  0  0  0  0
    6.4675   -0.3015   18.5124 C   0  0  0  0  0  0  0  0  0  0  0  0
    5.5910    0.2326   17.4185 N   0  0  0  0  0  0  0  0  0  0  0  0
    4.4950    1.2041   17.7426 C   0  0  0  0  0  0  0  0  0  0  0  0
    4.2754    1.6415   19.1605 C   0  0  0  0  0  0  0  0  0  0  0  0
    3.1794    2.6129   19.4846 C   0  0  0  0  0  0  0  0  0  0  0  0
    2.9599    3.0503   20.9025 C   0  0  0  0  0  0  0  0  0  0  0  0
    3.8363    2.5161   21.9963 C   0  0  0  0  0  0  0  0  0  0  0  0
    4.9323    1.5447   21.6723 C   0  0  0  0  0  0  0  0  0  0  0  0
    5.1519    1.1074   20.2544 C   0  0  0  0  0  0  0  0  0  0  0  0
 11 12  1  0  0  0
 12 13  1  0  0  0
 12 10  1  0  0  0
 10  1  1  0  0  0
  1  2  1  0  0  0
  1  3  1  0  0  0
  3  4  1  0  0  0
  4  5  1  0  0  0
  5  6  1  0  0  0
  6  7  2  0  0  0
  6 14  1  0  0  0
 14 15  1  0  0  0
 15 16  2  0  0  0
 16 17  1  0  0  0
 17 18  2  0  0  0
 18 19  1  0  0  0
 19 20  2  0  0  0
 20 21  1  0  0  0
 21 22  2  0  0  0
 22 23  1  0  0  0
 23 24  2  0  0  0
  5  8  1  0  0  0
  8  9  1  0  0  0
  9  1  1  0  0  0
 24 15  1  0  0  0
 24 19  1  0  0  0
M  END
> <minimizedAffinity>
-7.72004

> <CNNscore>
0.7709254622

> <CNNaffinity>
5.9221639633

> <CNN_VS>
4.5655469894

> <CNNaffinity_variance>
0.0414398164

$$$$



 24 26  0  0  0  0  0  0  0  0999 V2000
   10.7924   -1.0177   24.4970 C   0  0  0  0  0  0  0  0  0  0  0  0
   12.2421   -0.6951   24.7080 C   0  0  0  0  0  0  0  0  0  0  0  0
    9.4072   -1.5247   24.7689 C   0  0  0  0  0  0  0  0  0  0  0  0
    8.3401   -1.3887   23.7235 C   0  0  0  0  0  0  0  0  0  0  0  0
    8.6582   -0.7457   22.4062 N   0  0  0  0  0  0  0  0  0  0  0  0
    7.5911   -0.6097   21.3609 C   0  0  0  0  0  0  0  0  0  0  0  0
    7.9093    0.0333   20.0435 O   0  0  0  0  0  0  0  0  0  0  0  0
   10.0435   -0.2386   22.1343 C   0  0  0  0  0  0  0  0  0  0  0  0
   11.1106   -0.3746   23.1796 C   0  0  0  0  0  0  0  0  0  0  0  0
   10.9777   -1.5487   25.8876 C   0  0  0  0  0  0  0  0  0  0  0  0
   13.1013   -2.9215   26.4841 C   0  0  0  0  0  0  0  0  0  0  0  0
   11.6517   -2.8715   26.1017 C   0  0  0  0  0  0  0  0  0  0  0  0
   10.8761   -4.1443   25.9333 C   0  0  0  0  0  0  0  0  0  0  0  0
    6.2059   -1.1167   21.6328 C   0  0  0  0  0  0  0  0  0  0  0  0
    5.1356   -0.1684   22.0857 C   0  0  0  0  0  0  0  0  0  0  0  0
    4.7922   -0.0652   23.5422 C   0  0  0  0  0  0  0  0  0  0  0  0
    3.7219    0.8831   23.9951 N   0  0  0  0  0  0  0  0  0  0  0  0
    2.9949    1.7282   22.9915 C   0  0  0  0  0  0  0  0  0  0  0  0
    3.3383    1.6251   21.5349 C   0  0  0  0  0  0  0  0  0  0  0  0
    2.6114    2.4703   20.5314 C   0  0  0  0  0  0  0  0  0  0  0  0
    2.9547    2.3672   19.0749 C   0  0  0  0  0  0  0  0  0  0  0  0
    4.0250    1.4188   18.6220 C   0  0  0  0  0  0  0  0  0  0  0  0
    4.7520    0.5737   19.6255 C   0  0  0  0  0  0  0  0  0  0  0  0
    4.4086    0.6768   21.0820 C   0  0  0  0  0  0  0  0  0  0  0  0
 11 12  1  0  0  0
 12 13  1  0  0  0
 12 10  1  0  0  0
 10  1  1  0  0  0
  1  2  1  0  0  0
  1  3  1  0  0  0
  3  4  1  0  0  0
  4  5  1  0  0  0
  5  6  1  0  0  0
  6  7  2  0  0  0
  6 14  1  0  0  0
 14 15  1  0  0  0
 15 16  2  0  0  0
 16 17  1  0  0  0
 17 18  2  0  0  0
 18 19  1  0  0  0
 19 20  2  0  0  0
 20 21  1  0  0  0
 21 22  2  0  0  0
 22 23  1  0  0  0
 23 24  2  0  0  0
  5  8  1  0  0  0
  8  9  1  0  0  0
  9  1  1  0  0  0
 24 15  1  0  0  0
 24 19  1  0  0  0
M  END
> <minimizedAffinity>
-6.95011

> <CNNscore>
0.6329638958

> <CNNaffinity>
5.7164311409

> <CNN_VS>
3.6182944775

> <CNNaffinity_variance>
0.0906449705

$$$$



 24 26  0  0  0  0  0  0  0  0999 V2000
   11.4140   -1.0620   23.7862 C   0  0  0  0  0  0  0  0  0  0  0  0
   12.6290   -0.6400   24.5581 C   0  0  0  0  0  0  0  0  0  0  0  0
   10.3649   -1.9482   23.1829 C   0  0  0  0  0  0  0  0  0  0  0  0
    9.2601   -1.3512   22.3625 C   0  0  0  0  0  0  0  0  0  0  0  0
    9.2045    0.1319   22.1454 N   0  0  0  0  0  0  0  0  0  0  0  0
    8.0997    0.7289   21.3249 C   0  0  0  0  0  0  0  0  0  0  0  0
    8.0441    2.2121   21.1078 O   0  0  0  0  0  0  0  0  0  0  0  0
   10.2536    1.0182   22.7487 C   0  0  0  0  0  0  0  0  0  0  0  0
   11.3584    0.4212   23.5691 C   0  0  0  0  0  0  0  0  0  0  0  0
   11.8916   -2.3987   24.2714 C   0  0  0  0  0  0  0  0  0  0  0  0
   12.9366   -3.0816   26.5500 C   0  0  0  0  0  0  0  0  0  0  0  0
   11.7292   -2.7746   25.7144 C   0  0  0  0  0  0  0  0  0  0  0  0
   10.3595   -2.8434   26.3219 C   0  0  0  0  0  0  0  0  0  0  0  0
    7.0506   -0.1573   20.7216 C   0  0  0  0  0  0  0  0  0  0  0  0
    5.8560    0.4477   20.0455 C   0  0  0  0  0  0  0  0  0  0  0  0
    5.8218    0.5694   18.5509 C   0  0  0  0  0  0  0  0  0  0  0  0
    4.6273    1.1743   17.8748 N   0  0  0  0  0  0  0  0  0  0  0  0
    3.4670    1.6577   18.6933 C   0  0  0  0  0  0  0  0  0  0  0  0
    3.5012    1.5360   20.1881 C   0  0  0  0  0  0  0  0  0  0  0  0
    2.3409    2.0194   21.0066 C   0  0  0  0  0  0  0  0  0  0  0  0
    2.3751    1.8977   22.5012 C   0  0  0  0  0  0  0  0  0  0  0  0
    3.5696    1.2927   23.1773 C   0  0  0  0  0  0  0  0  0  0  0  0
    4.7299    0.8094   22.3588 C   0  0  0  0  0  0  0  0  0  0  0  0
    4.6957    0.9311   20.8642 C   0  0  0  0  0  0  0  0  0  0  0  0
 11 12  1  0  0  0
 12 13  1  0  0  0
 12 10  1  0  0  0
 10  1  1  0  0  0
  1  2  1  0  0  0
  1  3  1  0  0  0
  3  4  1  0  0  0
  4  5  1  0  0  0
  5  6  1  0  0  0
  6  7  2  0  0  0
  6 14  1  0  0  0
 14 15  1  0  0  0
 15 16  2  0  0  0
 16 17  1  0  0  0
 17 18  2  0  0  0
 18 19  1  0  0  0
 19 20  2  0  0  0
 20 21  1  0  0  0
 21 22  2  0  0  0
 22 23  1  0  0  0
 23 24  2  0  0  0
  5  8  1  0  0  0
  8  9  1  0  0  0
  9  1  1  0  0  0
 24 15  1  0  0  0
 24 19  1  0  0  0
M  END
> <minimizedAffinity>
-7.20243

> <CNNscore>
0.5832201838

> <CNNaffinity>
5.6076350212

> <CNN_VS>
3.2704858780

> <CNNaffinity_variance>
0.0619729161

$$$$



 24 26  0  0  0  0  0  0  0  0999 V2000
   10.7617   -1.0513   25.2134 C   0  0  0  0  0  0  0  0  0  0  0  0
   12.1627   -1.0199   25.7482 C   0  0  0  0  0  0  0  0  0  0  0  0
    9.3225   -1.4424   25.0534 C   0  0  0  0  0  0  0  0  0  0  0  0
    8.4798   -0.7869   23.9997 C   0  0  0  0  0  0  0  0  0  0  0  0
    9.0763    0.2597   23.1061 N   0  0  0  0  0  0  0  0  0  0  0  0
    8.2336    0.9152   22.0524 C   0  0  0  0  0  0  0  0  0  0  0  0
    8.8302    1.9619   21.1587 O   0  0  0  0  0  0  0  0  0  0  0  0
   10.5156    0.6509   23.2660 C   0  0  0  0  0  0  0  0  0  0  0  0
   11.3583   -0.0046   24.3197 C   0  0  0  0  0  0  0  0  0  0  0  0
   10.6517   -2.0871   26.2928 C   0  0  0  0  0  0  0  0  0  0  0  0
   12.7079   -3.6615   26.0848 C   0  0  0  0  0  0  0  0  0  0  0  0
   11.2218   -3.4577   26.0779 C   0  0  0  0  0  0  0  0  0  0  0  0
   10.3059   -4.6247   25.8561 C   0  0  0  0  0  0  0  0  0  0  0  0
    6.7944    0.5241   21.8924 C   0  0  0  0  0  0  0  0  0  0  0  0
    6.1448    0.5905   20.5420 C   0  0  0  0  0  0  0  0  0  0  0  0
    6.7086   -0.2003   19.3988 C   0  0  0  0  0  0  0  0  0  0  0  0
    6.0590   -0.1339   18.0484 N   0  0  0  0  0  0  0  0  0  0  0  0
    4.8456    0.7232   17.8412 C   0  0  0  0  0  0  0  0  0  0  0  0
    4.2817    1.5140   18.9844 C   0  0  0  0  0  0  0  0  0  0  0  0
    3.0684    2.3712   18.7771 C   0  0  0  0  0  0  0  0  0  0  0  0
    2.5046    3.1619   19.9203 C   0  0  0  0  0  0  0  0  0  0  0  0
    3.1542    3.0955   21.2707 C   0  0  0  0  0  0  0  0  0  0  0  0
    4.3676    2.2384   21.4779 C   0  0  0  0  0  0  0  0  0  0  0  0
    4.9313    1.4477   20.3348 C   0  0  0  0  0  0  0  0  0  0  0  0
 11 12  1  0  0  0
 12 13  1  0  0  0
 12 10  1  0  0  0
 10  1  1  0  0  0
  1  2  1  0  0  0
  1  3  1  0  0  0
  3  4  1  0  0  0
  4  5  1  0  0  0
  5  6  1  0  0  0
  6  7  2  0  0  0
  6 14  1  0  0  0
 14 15  1  0  0  0
 15 16  2  0  0  0
 16 17  1  0  0  0
 17 18  2  0  0  0
 18 19  1  0  0  0
 19 20  2  0  0  0
 20 21  1  0  0  0
 21 22  2  0  0  0
 22 23  1  0  0  0
 23 24  2  0  0  0
  5  8  1  0  0  0
  8  9  1  0  0  0
  9  1  1  0  0  0
 24 15  1  0  0  0
 24 19  1  0  0  0
M  END
> <minimizedAffinity>
-7.40378

> <CNNscore>
0.5534175038

> <CNNaffinity>
5.6390876770

> <CNN_VS>
3.1207697392

> <CNNaffinity_variance>
0.1022300869

$$$$



 24 26  0  0  0  0  0  0  0  0999 V2000
    9.9081   -2.3363   25.1736 C   0  0  0  0  0  0  0  0  0  0  0  0
   10.0059   -3.1982   26.3975 C   0  0  0  0  0  0  0  0  0  0  0  0
   10.2722   -1.6999   23.8651 C   0  0  0  0  0  0  0  0  0  0  0  0
    9.3402   -0.7138   23.2257 C   0  0  0  0  0  0  0  0  0  0  0  0
    8.0441   -0.3641   23.8947 N   0  0  0  0  0  0  0  0  0  0  0  0
    7.1120    0.6220   23.2552 C   0  0  0  0  0  0  0  0  0  0  0  0
    5.8158    0.9717   23.9243 O   0  0  0  0  0  0  0  0  0  0  0  0
    7.6798   -1.0006   25.2033 C   0  0  0  0  0  0  0  0  0  0  0  0
    8.6119   -1.9867   25.8428 C   0  0  0  0  0  0  0  0  0  0  0  0
   11.2382   -2.9853   24.9296 C   0  0  0  0  0  0  0  0  0  0  0  0
   12.9479   -1.0373   24.7501 C   0  0  0  0  0  0  0  0  0  0  0  0
   12.4966   -2.3144   25.3946 C   0  0  0  0  0  0  0  0  0  0  0  0
   13.3038   -2.9206   26.5041 C   0  0  0  0  0  0  0  0  0  0  0  0
    7.4762    1.2585   21.9467 C   0  0  0  0  0  0  0  0  0  0  0  0
    6.7287    0.8898   20.6996 C   0  0  0  0  0  0  0  0  0  0  0  0
    7.2352   -0.2150   19.8205 C   0  0  0  0  0  0  0  0  0  0  0  0
    6.4877   -0.5837   18.5734 N   0  0  0  0  0  0  0  0  0  0  0  0
    5.2336    0.1524   18.2054 C   0  0  0  0  0  0  0  0  0  0  0  0
    4.7270    1.2572   19.0845 C   0  0  0  0  0  0  0  0  0  0  0  0
    3.4730    1.9933   18.7165 C   0  0  0  0  0  0  0  0  0  0  0  0
    2.9665    3.0981   19.5955 C   0  0  0  0  0  0  0  0  0  0  0  0
    3.7140    3.4668   20.8427 C   0  0  0  0  0  0  0  0  0  0  0  0
    4.9680    2.7307   21.2107 C   0  0  0  0  0  0  0  0  0  0  0  0
    5.4746    1.6259   20.3316 C   0  0  0  0  0  0  0  0  0  0  0  0
 11 12  1  0  0  0
 12 13  1  0  0  0
 12 10  1  0  0  0
 10  1  1  0  0  0
  1  2  1  0  0  0
  1  3  1  0  0  0
  3  4  1  0  0  0
  4  5  1  0  0  0
  5  6  1  0  0  0
  6  7  2  0  0  0
  6 14  1  0  0  0
 14 15  1  0  0  0
 15 16  2  0  0  0
 16 17  1  0  0  0
 17 18  2  0  0  0
 18 19  1  0  0  0
 19 20  2  0  0  0
 20 21  1  0  0  0
 21 22  2  0  0  0
 22 23  1  0  0  0
 23 24  2  0  0  0
  5  8  1  0  0  0
  8  9  1  0  0  0
  9  1  1  0  0  0
 24 15  1  0  0  0
 24 19  1  0  0  0
M  END
> <minimizedAffinity>
-7.19055

> <CNNscore>
0.5338547230

> <CNNaffinity>
5.7198624611

> <CNN_VS>
3.0535755157

> <CNNaffinity_variance>
0.0766225606

$$$$



 24 26  0  0  0  0  0  0  0  0999 V2000
    9.2603    3.5717   23.0023 C   0  0  0  0  0  0  0  0  0  0  0  0
    8.5481    4.8918   23.0226 C   0  0  0  0  0  0  0  0  0  0  0  0
   10.3622    2.5625   23.1334 C   0  0  0  0  0  0  0  0  0  0  0  0
   10.0946    1.1169   22.8355 C   0  0  0  0  0  0  0  0  0  0  0  0
    8.7251    0.6806   22.4065 N   0  0  0  0  0  0  0  0  0  0  0  0
    8.4576   -0.7650   22.1086 C   0  0  0  0  0  0  0  0  0  0  0  0
    7.0880   -1.2013   21.6796 O   0  0  0  0  0  0  0  0  0  0  0  0
    7.6232    1.6899   22.2754 C   0  0  0  0  0  0  0  0  0  0  0  0
    7.8907    3.1354   22.5732 C   0  0  0  0  0  0  0  0  0  0  0  0
   10.3825    4.4665   23.4383 C   0  0  0  0  0  0  0  0  0  0  0  0
   12.1504    4.4225   21.5350 C   0  0  0  0  0  0  0  0  0  0  0  0
   11.2071    5.1887   22.4143 C   0  0  0  0  0  0  0  0  0  0  0  0
   11.0883    6.6769   22.2697 C   0  0  0  0  0  0  0  0  0  0  0  0
    9.5595   -1.7742   22.2397 C   0  0  0  0  0  0  0  0  0  0  0  0
    9.6777   -2.5976   23.4879 C   0  0  0  0  0  0  0  0  0  0  0  0
    8.5534   -3.5009   23.8999 C   0  0  0  0  0  0  0  0  0  0  0  0
    8.6717   -4.3243   25.1481 N   0  0  0  0  0  0  0  0  0  0  0  0
    9.9143   -4.2444   25.9843 C   0  0  0  0  0  0  0  0  0  0  0  0
   11.0388   -3.3410   25.5724 C   0  0  0  0  0  0  0  0  0  0  0  0
   12.2814   -3.2611   26.4087 C   0  0  0  0  0  0  0  0  0  0  0  0
   13.4058   -2.3577   25.9968 C   0  0  0  0  0  0  0  0  0  0  0  0
   13.2875   -1.5343   24.7486 C   0  0  0  0  0  0  0  0  0  0  0  0
   12.0448   -1.6143   23.9123 C   0  0  0  0  0  0  0  0  0  0  0  0
   10.9205   -2.5176   24.3242 C   0  0  0  0  0  0  0  0  0  0  0  0
 11 12  1  0  0  0
 12 13  1  0  0  0
 12 10  1  0  0  0
 10  1  1  0  0  0
  1  2  1  0  0  0
  1  3  1  0  0  0
  3  4  1  0  0  0
  4  5  1  0  0  0
  5  6  1  0  0  0
  6  7  2  0  0  0
  6 14  1  0  0  0
 14 15  1  0  0  0
 15 16  2  0  0  0
 16 17  1  0  0  0
 17 18  2  0  0  0
 18 19  1  0  0  0
 19 20  2  0  0  0
 20 21  1  0  0  0
 21 22  2  0  0  0
 22 23  1  0  0  0
 23 24  2  0  0  0
  5  8  1  0  0  0
  8  9  1  0  0  0
  9  1  1  0  0  0
 24 15  1  0  0  0
 24 19  1  0  0  0
M  END
> <minimizedAffinity>
-6.66375

> <CNNscore>
0.5196070671

> <CNNaffinity>
5.9283289909

> <CNN_VS>
3.0804016590

> <CNNaffinity_variance>
0.1036276594

$$$$



 24 26  0  0  0  0  0  0  0  0999 V2000
   11.3885   -0.9314   23.3070 C   0  0  0  0  0  0  0  0  0  0  0  0
   12.5762   -0.0260   23.4471 C   0  0  0  0  0  0  0  0  0  0  0  0
   10.5452   -2.1702   23.3709 C   0  0  0  0  0  0  0  0  0  0  0  0
    9.1228   -2.1345   22.8959 C   0  0  0  0  0  0  0  0  0  0  0  0
    8.5438   -0.8601   22.3569 N   0  0  0  0  0  0  0  0  0  0  0  0
    7.1215   -0.8244   21.8819 C   0  0  0  0  0  0  0  0  0  0  0  0
    6.5425    0.4501   21.3430 O   0  0  0  0  0  0  0  0  0  0  0  0
    9.3872    0.3788   22.2930 C   0  0  0  0  0  0  0  0  0  0  0  0
   10.8095    0.3431   22.7680 C   0  0  0  0  0  0  0  0  0  0  0  0
   12.3800   -1.8915   23.8946 C   0  0  0  0  0  0  0  0  0  0  0  0
   11.3106   -1.8520   26.2621 C   0  0  0  0  0  0  0  0  0  0  0  0
   12.5160   -2.0115   25.3836 C   0  0  0  0  0  0  0  0  0  0  0  0
   13.8572   -2.2909   25.9942 C   0  0  0  0  0  0  0  0  0  0  0  0
    6.2781   -2.0632   21.9458 C   0  0  0  0  0  0  0  0  0  0  0  0
    5.9034   -2.6477   23.2755 C   0  0  0  0  0  0  0  0  0  0  0  0
    5.4062   -1.7552   24.3738 C   0  0  0  0  0  0  0  0  0  0  0  0
    5.0315   -2.3397   25.7034 N   0  0  0  0  0  0  0  0  0  0  0  0
    5.1541   -3.8166   25.9348 C   0  0  0  0  0  0  0  0  0  0  0  0
    5.6514   -4.7092   24.8366 C   0  0  0  0  0  0  0  0  0  0  0  0
    5.7740   -6.1861   25.0680 C   0  0  0  0  0  0  0  0  0  0  0  0
    6.2713   -7.0785   23.9697 C   0  0  0  0  0  0  0  0  0  0  0  0
    6.6459   -6.4941   22.6401 C   0  0  0  0  0  0  0  0  0  0  0  0
    6.5233   -5.0171   22.4086 C   0  0  0  0  0  0  0  0  0  0  0  0
    6.0261   -4.1247   23.5069 C   0  0  0  0  0  0  0  0  0  0  0  0
 11 12  1  0  0  0
 12 13  1  0  0  0
 12 10  1  0  0  0
 10  1  1  0  0  0
  1  2  1  0  0  0
  1  3  1  0  0  0
  3  4  1  0  0  0
  4  5  1  0  0  0
  5  6  1  0  0  0
  6  7  2  0  0  0
  6 14  1  0  0  0
 14 15  1  0  0  0
 15 16  2  0  0  0
 16 17  1  0  0  0
 17 18  2  0  0  0
 18 19  1  0  0  0
 19 20  2  0  0  0
 20 21  1  0  0  0
 21 22  2  0  0  0
 22 23  1  0  0  0
 23 24  2  0  0  0
  5  8  1  0  0  0
  8  9  1  0  0  0
  9  1  1  0  0  0
 24 15  1  0  0  0
 24 19  1  0  0  0
M  END
> <minimizedAffinity>
-6.40565

> <CNNscore>
0.5097212195

> <CNNaffinity>
5.9439744949

> <CNN_VS>
3.0297698975

> <CNNaffinity_variance>
0.1350692809

$$$$



 24 26  0  0  0  0  0  0  0  0999 V2000
    8.7562    3.0008   23.1652 C   0  0  0  0  0  0  0  0  0  0  0  0
    8.4304    4.4638   23.2229 C   0  0  0  0  0  0  0  0  0  0  0  0
    8.5669    1.5129   23.1809 C   0  0  0  0  0  0  0  0  0  0  0  0
    9.7477    0.6047   23.0054 C   0  0  0  0  0  0  0  0  0  0  0  0
   11.1179    1.1843   22.8142 N   0  0  0  0  0  0  0  0  0  0  0  0
   12.2987    0.2761   22.6387 C   0  0  0  0  0  0  0  0  0  0  0  0
   13.6689    0.8558   22.4475 O   0  0  0  0  0  0  0  0  0  0  0  0
   11.3073    2.6723   22.7986 C   0  0  0  0  0  0  0  0  0  0  0  0
   10.1265    3.5805   22.9741 C   0  0  0  0  0  0  0  0  0  0  0  0
    7.2729    2.9292   23.3764 C   0  0  0  0  0  0  0  0  0  0  0  0
    5.3978    4.2463   22.1519 C   0  0  0  0  0  0  0  0  0  0  0  0
    6.3412    3.0815   22.2108 C   0  0  0  0  0  0  0  0  0  0  0  0
    6.3528    2.0692   21.1041 C   0  0  0  0  0  0  0  0  0  0  0  0
   12.1094   -1.2118   22.6543 C   0  0  0  0  0  0  0  0  0  0  0  0
   12.1934   -1.9650   23.9488 C   0  0  0  0  0  0  0  0  0  0  0  0
   13.4804   -1.9921   24.7186 C   0  0  0  0  0  0  0  0  0  0  0  0
   13.5644   -2.7452   26.0131 N   0  0  0  0  0  0  0  0  0  0  0  0
   12.3613   -3.4714   26.5377 C   0  0  0  0  0  0  0  0  0  0  0  0
   11.0742   -3.4443   25.7679 C   0  0  0  0  0  0  0  0  0  0  0  0
    9.8711   -4.1704   26.2926 C   0  0  0  0  0  0  0  0  0  0  0  0
    8.5840   -4.1433   25.5228 C   0  0  0  0  0  0  0  0  0  0  0  0
    8.5000   -3.3901   24.2283 C   0  0  0  0  0  0  0  0  0  0  0  0
    9.7031   -2.6640   23.7036 C   0  0  0  0  0  0  0  0  0  0  0  0
   10.9902   -2.6911   24.4735 C   0  0  0  0  0  0  0  0  0  0  0  0
 11 12  1  0  0  0
 12 13  1  0  0  0
 12 10  1  0  0  0
 10  1  1  0  0  0
  1  2  1  0  0  0
  1  3  1  0  0  0
  3  4  1  0  0  0
  4  5  1  0  0  0
  5  6  1  0  0  0
  6  7  2  0  0  0
  6 14  1  0  0  0
 14 15  1  0  0  0
 15 16  2  0  0  0
 16 17  1  0  0  0
 17 18  2  0  0  0
 18 19  1  0  0  0
 19 20  2  0  0  0
 20 21  1  0  0  0
 21 22  2  0  0  0
 22 23  1  0  0  0
 23 24  2  0  0  0
  5  8  1  0  0  0
  8  9  1  0  0  0
  9  1  1  0  0  0
 24 15  1  0  0  0
 24 19  1  0  0  0
M  END
> <minimizedAffinity>
-6.98545

> <CNNscore>
0.4433523715

> <CNNaffinity>
5.8084115982

> <CNN_VS>
2.5751731396

> <CNNaffinity_variance>
0.1182199940

$$$$
