


 40 45  0  0  0  0  0  0  0  0999 V2000
    7.2602   -2.5149   22.3576 N   0  0  0  0  0  0  0  0  0  0  0  0
    8.4200   -1.6118   22.6562 C   0  0  0  0  0  0  0  0  0  0  0  0
    8.3036   -0.1362   22.4134 C   0  0  0  0  0  0  0  0  0  0  0  0
    8.3349    1.3513   22.2226 C   0  0  0  0  0  0  0  0  0  0  0  0
    7.6196    2.2558   21.8398 O   0  0  0  0  0  0  0  0  0  0  0  0
    9.6864    1.8448   22.6465 N   0  0  0  0  0  0  0  0  0  0  0  0
   10.4906    0.6622   23.0994 C   0  0  0  0  0  0  0  0  0  0  0  0
    9.6359   -0.5620   22.9553 C   0  0  0  0  0  0  0  0  0  0  0  0
    7.0273    0.4364   21.8719 C   0  0  0  0  0  0  0  0  0  0  0  0
    6.9109    1.9120   21.6290 C   0  0  0  0  0  0  0  0  0  0  0  0
    5.6346    2.4845   21.0875 C   0  0  0  0  0  0  0  0  0  0  0  0
    5.5181    3.9602   20.8446 Cl  0  0  0  0  0  0  0  0  0  0  0  0
    4.4747    1.5815   20.7889 C   0  0  0  0  0  0  0  0  0  0  0  0
    4.5911    0.1059   21.0317 C   0  0  0  0  0  0  0  0  0  0  0  0
    5.8674   -0.4667   21.5732 C   0  0  0  0  0  0  0  0  0  0  0  0
    5.9839   -1.9423   21.8161 C   0  0  0  0  0  0  0  0  0  0  0  0
    4.8240   -2.8454   21.5175 O   0  0  0  0  0  0  0  0  0  0  0  0
   10.1521    3.2704   22.6219 C   0  0  0  0  0  0  0  0  0  0  0  0
   11.4554    3.6226   21.9681 C   0  0  0  0  0  0  0  0  0  0  0  0
   11.9211    5.0482   21.9435 N   0  0  0  0  0  0  0  0  0  0  0  0
   11.0835    6.1218   22.5728 C   0  0  0  0  0  0  0  0  0  0  0  0
    9.7802    5.7696   23.2265 C   0  0  0  0  0  0  0  0  0  0  0  0
    8.9425    6.8432   23.8558 C   0  0  0  0  0  0  0  0  0  0  0  0
    7.6392    6.4910   24.5096 C   0  0  0  0  0  0  0  0  0  0  0  0
    7.1736    5.0653   24.5341 C   0  0  0  0  0  0  0  0  0  0  0  0
    8.0112    3.9918   23.9049 C   0  0  0  0  0  0  0  0  0  0  0  0
    9.3145    4.3439   23.2511 C   0  0  0  0  0  0  0  0  0  0  0  0
    7.3767   -3.9905   22.6005 C   0  0  0  0  0  0  0  0  0  0  0  0
    4.1971   -6.0727   23.7428 C   0  0  0  0  0  0  0  0  0  0  0  0
    5.1949   -5.3759   22.8659 N   0  0  0  0  0  0  0  0  0  0  0  0
    6.3789   -4.6873   23.4774 C   0  0  0  0  0  0  0  0  0  0  0  0
    6.5652   -4.6955   24.9658 O   0  0  0  0  0  0  0  0  0  0  0  0
    5.0726   -5.3705   21.8891 H   0  0  0  0  0  0  0  0  0  0  0  0
   10.0423   -1.9657   23.2937 C   0  0  0  0  0  0  0  0  0  0  0  0
   11.0851   -2.2123   24.3432 C   0  0  0  0  0  0  0  0  0  0  0  0
   12.4093   -1.5120   24.2639 C   0  0  0  0  0  0  0  0  0  0  0  0
   13.4521   -1.7586   25.3135 C   0  0  0  0  0  0  0  0  0  0  0  0
   13.1709   -2.7056   26.4423 C   0  0  0  0  0  0  0  0  0  0  0  0
   11.8468   -3.4059   26.5216 C   0  0  0  0  0  0  0  0  0  0  0  0
   10.8039   -3.1593   25.4720 C   0  0  0  0  0  0  0  0  0  0  0  0
 29 30  1  0  0  0
 30 31  1  0  0  0
 31 32  2  0  0  0
 31 28  1  0  0  0
 28  1  1  0  0  0
  1  2  1  0  0  0
  3  2  1  0  0  0
  3  4  1  0  0  0
  4  5  2  0  0  0
  4  6  1  0  0  0
  6 18  1  0  0  0
 18 19  2  0  0  0
 19 20  1  0  0  0
 20 21  2  0  0  0
 21 22  1  0  0  0
 22 23  2  0  0  0
 23 24  1  0  0  0
 24 25  2  0  0  0
 25 26  1  0  0  0
 26 27  2  0  0  0
  6  7  1  0  0  0
  7  8  1  0  0  0
  8 34  1  0  0  0
 34 35  1  0  0  0
 35 36  2  0  0  0
 36 37  1  0  0  0
 37 38  2  0  0  0
 38 39  1  0  0  0
 39 40  2  0  0  0
  3  9  1  0  0  0
  9 10  2  0  0  0
 10 11  1  0  0  0
 11 12  1  0  0  0
 11 13  2  0  0  0
 13 14  1  0  0  0
 14 15  2  0  0  0
 15 16  1  0  0  0
 16 17  2  0  0  0
 16  1  1  0  0  0
  8  3  1  0  0  0
 40 35  1  0  0  0
 15  9  1  0  0  0
 27 18  1  0  0  0
 27 22  1  0  0  0
 30 33  1  0  0  0
M  END
> <minimizedAffinity>
-8.52332

> <CNNscore>
0.3537272811

> <CNNaffinity>
7.1446046829

> <CNN_VS>
2.5272417068

> <CNNaffinity_variance>
0.1713607013

$$$$



 40 45  0  0  0  0  0  0  0  0999 V2000
    9.7695    1.7531   23.4271 N   0  0  0  0  0  0  0  0  0  0  0  0
    9.5617    0.2686   23.4825 C   0  0  0  0  0  0  0  0  0  0  0  0
    8.1716   -0.2928   23.5313 C   0  0  0  0  0  0  0  0  0  0  0  0
    6.8479   -0.9965   23.5835 C   0  0  0  0  0  0  0  0  0  0  0  0
    5.6595   -0.7439   23.6001 O   0  0  0  0  0  0  0  0  0  0  0  0
    7.1092   -2.4728   23.6288 N   0  0  0  0  0  0  0  0  0  0  0  0
    8.5944   -2.6817   23.6045 C   0  0  0  0  0  0  0  0  0  0  0  0
    9.2509   -1.3343   23.5442 C   0  0  0  0  0  0  0  0  0  0  0  0
    6.9892    0.6303   23.5246 C   0  0  0  0  0  0  0  0  0  0  0  0
    5.5991    0.0689   23.5734 C   0  0  0  0  0  0  0  0  0  0  0  0
    4.4168    0.9920   23.5667 C   0  0  0  0  0  0  0  0  0  0  0  0
    3.0267    0.4306   23.6155 Cl  0  0  0  0  0  0  0  0  0  0  0  0
    4.6247    2.4765   23.5113 C   0  0  0  0  0  0  0  0  0  0  0  0
    6.0148    3.0379   23.4625 C   0  0  0  0  0  0  0  0  0  0  0  0
    7.1970    2.1148   23.4692 C   0  0  0  0  0  0  0  0  0  0  0  0
    8.5872    2.6762   23.4204 C   0  0  0  0  0  0  0  0  0  0  0  0
    8.7950    4.1607   23.3649 O   0  0  0  0  0  0  0  0  0  0  0  0
    6.0680   -3.5511   23.6879 C   0  0  0  0  0  0  0  0  0  0  0  0
    5.5854   -4.1978   22.4235 C   0  0  0  0  0  0  0  0  0  0  0  0
    4.5443   -5.2760   22.4826 N   0  0  0  0  0  0  0  0  0  0  0  0
    3.9858   -5.7075   23.8062 C   0  0  0  0  0  0  0  0  0  0  0  0
    4.4684   -5.0607   25.0707 C   0  0  0  0  0  0  0  0  0  0  0  0
    3.9099   -5.4922   26.3943 C   0  0  0  0  0  0  0  0  0  0  0  0
    4.3926   -4.8454   27.6587 C   0  0  0  0  0  0  0  0  0  0  0  0
    5.4337   -3.7672   27.5995 C   0  0  0  0  0  0  0  0  0  0  0  0
    5.9922   -3.3357   26.2759 C   0  0  0  0  0  0  0  0  0  0  0  0
    5.5095   -3.9825   25.0115 C   0  0  0  0  0  0  0  0  0  0  0  0
   11.1597    2.3145   23.3783 C   0  0  0  0  0  0  0  0  0  0  0  0
   11.8088    6.1976   22.8783 C   0  0  0  0  0  0  0  0  0  0  0  0
   11.5562    4.8768   23.5429 N   0  0  0  0  0  0  0  0  0  0  0  0
   11.4122    3.6353   22.7136 C   0  0  0  0  0  0  0  0  0  0  0  0
   11.5207    3.7145   21.2196 O   0  0  0  0  0  0  0  0  0  0  0  0
   11.4850    4.8248   24.5235 H   0  0  0  0  0  0  0  0  0  0  0  0
   10.7277   -1.0742   23.5040 C   0  0  0  0  0  0  0  0  0  0  0  0
   11.6285   -1.7055   24.5236 C   0  0  0  0  0  0  0  0  0  0  0  0
   13.0536   -1.2539   24.6476 C   0  0  0  0  0  0  0  0  0  0  0  0
   13.9544   -1.8853   25.6673 C   0  0  0  0  0  0  0  0  0  0  0  0
   13.4302   -2.9681   26.5632 C   0  0  0  0  0  0  0  0  0  0  0  0
   12.0052   -3.4197   26.4394 C   0  0  0  0  0  0  0  0  0  0  0  0
   11.1043   -2.7884   25.4196 C   0  0  0  0  0  0  0  0  0  0  0  0
 29 30  1  0  0  0
 30 31  1  0  0  0
 31 32  2  0  0  0
 31 28  1  0  0  0
 28  1  1  0  0  0
  1  2  1  0  0  0
  3  2  1  0  0  0
  3  4  1  0  0  0
  4  5  2  0  0  0
  4  6  1  0  0  0
  6 18  1  0  0  0
 18 19  2  0  0  0
 19 20  1  0  0  0
 20 21  2  0  0  0
 21 22  1  0  0  0
 22 23  2  0  0  0
 23 24  1  0  0  0
 24 25  2  0  0  0
 25 26  1  0  0  0
 26 27  2  0  0  0
  6  7  1  0  0  0
  7  8  1  0  0  0
  8 34  1  0  0  0
 34 35  1  0  0  0
 35 36  2  0  0  0
 36 37  1  0  0  0
 37 38  2  0  0  0
 38 39  1  0  0  0
 39 40  2  0  0  0
  3  9  1  0  0  0
  9 10  2  0  0  0
 10 11  1  0  0  0
 11 12  1  0  0  0
 11 13  2  0  0  0
 13 14  1  0  0  0
 14 15  2  0  0  0
 15 16  1  0  0  0
 16 17  2  0  0  0
 16  1  1  0  0  0
  8  3  1  0  0  0
 40 35  1  0  0  0
 15  9  1  0  0  0
 27 18  1  0  0  0
 27 22  1  0  0  0
 30 33  1  0  0  0
M  END
> <minimizedAffinity>
-7.81121

> <CNNscore>
0.2605476677

> <CNNaffinity>
6.9457955360

> <CNN_VS>
1.8097108603

> <CNNaffinity_variance>
0.1623400152

$$$$



 40 45  0  0  0  0  0  0  0  0999 V2000
    8.6360    0.4540   22.8409 N   0  0  0  0  0  0  0  0  0  0  0  0
    8.5146   -0.8647   23.5453 C   0  0  0  0  0  0  0  0  0  0  0  0
    7.2357   -1.2295   24.2390 C   0  0  0  0  0  0  0  0  0  0  0  0
    6.0263   -1.7295   24.9720 C   0  0  0  0  0  0  0  0  0  0  0  0
    4.8964   -1.3802   25.2508 O   0  0  0  0  0  0  0  0  0  0  0  0
    6.3455   -3.0888   25.5201 N   0  0  0  0  0  0  0  0  0  0  0  0
    7.7522   -3.4289   25.1259 C   0  0  0  0  0  0  0  0  0  0  0  0
    8.3023   -2.2798   24.3341 C   0  0  0  0  0  0  0  0  0  0  0  0
    6.0781   -0.2756   24.2282 C   0  0  0  0  0  0  0  0  0  0  0  0
    4.7992   -0.6404   24.9219 C   0  0  0  0  0  0  0  0  0  0  0  0
    3.6416    0.3135   24.9111 C   0  0  0  0  0  0  0  0  0  0  0  0
    2.3626   -0.0512   25.6048 Cl  0  0  0  0  0  0  0  0  0  0  0  0
    3.7631    1.6323   24.2067 C   0  0  0  0  0  0  0  0  0  0  0  0
    5.0420    1.9971   23.5130 C   0  0  0  0  0  0  0  0  0  0  0  0
    6.1995    1.0432   23.5238 C   0  0  0  0  0  0  0  0  0  0  0  0
    7.4785    1.4080   22.8301 C   0  0  0  0  0  0  0  0  0  0  0  0
    7.5999    2.7267   22.1257 O   0  0  0  0  0  0  0  0  0  0  0  0
    5.4204   -3.9557   26.3218 C   0  0  0  0  0  0  0  0  0  0  0  0
    4.7449   -5.1294   25.6765 C   0  0  0  0  0  0  0  0  0  0  0  0
    3.8198   -5.9963   26.4781 N   0  0  0  0  0  0  0  0  0  0  0  0
    3.5702   -5.6895   27.9250 C   0  0  0  0  0  0  0  0  0  0  0  0
    4.2456   -4.5159   28.5703 C   0  0  0  0  0  0  0  0  0  0  0  0
    3.9959   -4.2092   30.0173 C   0  0  0  0  0  0  0  0  0  0  0  0
    4.6714   -3.0355   30.6625 C   0  0  0  0  0  0  0  0  0  0  0  0
    5.5965   -2.1686   29.8608 C   0  0  0  0  0  0  0  0  0  0  0  0
    5.8461   -2.4753   28.4139 C   0  0  0  0  0  0  0  0  0  0  0  0
    5.1707   -3.6490   27.7687 C   0  0  0  0  0  0  0  0  0  0  0  0
    9.9151    0.8188   22.1472 C   0  0  0  0  0  0  0  0  0  0  0  0
   11.3364    4.4966   22.5984 C   0  0  0  0  0  0  0  0  0  0  0  0
   10.5136    3.3465   22.0982 N   0  0  0  0  0  0  0  0  0  0  0  0
   10.7379    1.9689   22.6475 C   0  0  0  0  0  0  0  0  0  0  0  0
   11.7852    1.7413   23.6970 O   0  0  0  0  0  0  0  0  0  0  0  0
    9.8262    3.4959   21.4094 H   0  0  0  0  0  0  0  0  0  0  0  0
    9.6778   -2.1958   23.7414 C   0  0  0  0  0  0  0  0  0  0  0  0
   10.8827   -2.4043   24.6100 C   0  0  0  0  0  0  0  0  0  0  0  0
   12.1311   -1.6100   24.3640 C   0  0  0  0  0  0  0  0  0  0  0  0
   13.3361   -1.8186   25.2326 C   0  0  0  0  0  0  0  0  0  0  0  0
   13.2927   -2.8215   26.3472 C   0  0  0  0  0  0  0  0  0  0  0  0
   12.0444   -3.6159   26.5932 C   0  0  0  0  0  0  0  0  0  0  0  0
   10.8393   -3.4073   25.7246 C   0  0  0  0  0  0  0  0  0  0  0  0
 29 30  1  0  0  0
 30 31  1  0  0  0
 31 32  2  0  0  0
 31 28  1  0  0  0
 28  1  1  0  0  0
  1  2  1  0  0  0
  3  2  1  0  0  0
  3  4  1  0  0  0
  4  5  2  0  0  0
  4  6  1  0  0  0
  6 18  1  0  0  0
 18 19  2  0  0  0
 19 20  1  0  0  0
 20 21  2  0  0  0
 21 22  1  0  0  0
 22 23  2  0  0  0
 23 24  1  0  0  0
 24 25  2  0  0  0
 25 26  1  0  0  0
 26 27  2  0  0  0
  6  7  1  0  0  0
  7  8  1  0  0  0
  8 34  1  0  0  0
 34 35  1  0  0  0
 35 36  2  0  0  0
 36 37  1  0  0  0
 37 38  2  0  0  0
 38 39  1  0  0  0
 39 40  2  0  0  0
  3  9  1  0  0  0
  9 10  2  0  0  0
 10 11  1  0  0  0
 11 12  1  0  0  0
 11 13  2  0  0  0
 13 14  1  0  0  0
 14 15  2  0  0  0
 15 16  1  0  0  0
 16 17  2  0  0  0
 16  1  1  0  0  0
  8  3  1  0  0  0
 40 35  1  0  0  0
 15  9  1  0  0  0
 27 18  1  0  0  0
 27 22  1  0  0  0
 30 33  1  0  0  0
M  END
> <minimizedAffinity>
-7.59147

> <CNNscore>
0.2364611924

> <CNNaffinity>
6.7512140274

> <CNN_VS>
1.5964001417

> <CNNaffinity_variance>
0.0898440331

$$$$



 40 45  0  0  0  0  0  0  0  0999 V2000
    9.9744    0.4563   22.7030 N   0  0  0  0  0  0  0  0  0  0  0  0
    8.8193   -0.4878   22.5470 C   0  0  0  0  0  0  0  0  0  0  0  0
    8.7645   -1.7467   23.3608 C   0  0  0  0  0  0  0  0  0  0  0  0
    8.5738   -3.0367   24.1021 C   0  0  0  0  0  0  0  0  0  0  0  0
    9.1268   -3.7175   24.9430 O   0  0  0  0  0  0  0  0  0  0  0  0
    7.2888   -3.6539   23.6356 N   0  0  0  0  0  0  0  0  0  0  0  0
    6.6852   -2.7454   22.6059 C   0  0  0  0  0  0  0  0  0  0  0  0
    7.5972   -1.5667   22.4360 C   0  0  0  0  0  0  0  0  0  0  0  0
    9.8647   -2.0614   24.3306 C   0  0  0  0  0  0  0  0  0  0  0  0
    9.8099   -3.3203   25.1443 C   0  0  0  0  0  0  0  0  0  0  0  0
   10.9101   -3.6350   26.1140 C   0  0  0  0  0  0  0  0  0  0  0  0
   10.8553   -4.8939   26.9278 Cl  0  0  0  0  0  0  0  0  0  0  0  0
   12.0652   -2.6908   26.2700 C   0  0  0  0  0  0  0  0  0  0  0  0
   12.1200   -1.4319   25.4563 C   0  0  0  0  0  0  0  0  0  0  0  0
   11.0198   -1.1173   24.4866 C   0  0  0  0  0  0  0  0  0  0  0  0
   11.0746    0.1417   23.6728 C   0  0  0  0  0  0  0  0  0  0  0  0
   12.2297    1.0859   23.8288 O   0  0  0  0  0  0  0  0  0  0  0  0
    6.7091   -4.9518   24.1146 C   0  0  0  0  0  0  0  0  0  0  0  0
    7.2456   -6.2513   23.5916 C   0  0  0  0  0  0  0  0  0  0  0  0
    6.6659   -7.5492   24.0706 N   0  0  0  0  0  0  0  0  0  0  0  0
    5.5498   -7.5476   25.0728 C   0  0  0  0  0  0  0  0  0  0  0  0
    5.0133   -6.2481   25.5958 C   0  0  0  0  0  0  0  0  0  0  0  0
    3.8972   -6.2465   26.5980 C   0  0  0  0  0  0  0  0  0  0  0  0
    3.3608   -4.9469   27.1210 C   0  0  0  0  0  0  0  0  0  0  0  0
    3.9404   -3.6491   26.6419 C   0  0  0  0  0  0  0  0  0  0  0  0
    5.0566   -3.6507   25.6398 C   0  0  0  0  0  0  0  0  0  0  0  0
    5.5930   -4.9502   25.1168 C   0  0  0  0  0  0  0  0  0  0  0  0
   10.0292    1.7153   21.8892 C   0  0  0  0  0  0  0  0  0  0  0  0
   10.6144    5.4819   22.9937 C   0  0  0  0  0  0  0  0  0  0  0  0
   10.8166    4.1513   22.3314 N   0  0  0  0  0  0  0  0  0  0  0  0
    9.8270    3.0458   22.5516 C   0  0  0  0  0  0  0  0  0  0  0  0
    8.6351    3.2709   23.4342 O   0  0  0  0  0  0  0  0  0  0  0  0
   11.5988    4.0036   21.7521 H   0  0  0  0  0  0  0  0  0  0  0  0
    7.3801   -0.4109   21.5049 C   0  0  0  0  0  0  0  0  0  0  0  0
    6.0178    0.2034   21.3769 C   0  0  0  0  0  0  0  0  0  0  0  0
    5.4542    0.5018   20.0192 C   0  0  0  0  0  0  0  0  0  0  0  0
    4.0917    1.1162   19.8912 C   0  0  0  0  0  0  0  0  0  0  0  0
    3.2929    1.4320   21.1208 C   0  0  0  0  0  0  0  0  0  0  0  0
    3.8564    1.1336   22.4785 C   0  0  0  0  0  0  0  0  0  0  0  0
    5.2189    0.5193   22.6066 C   0  0  0  0  0  0  0  0  0  0  0  0
 29 30  1  0  0  0
 30 31  1  0  0  0
 31 32  2  0  0  0
 31 28  1  0  0  0
 28  1  1  0  0  0
  1  2  1  0  0  0
  3  2  1  0  0  0
  3  4  1  0  0  0
  4  5  2  0  0  0
  4  6  1  0  0  0
  6 18  1  0  0  0
 18 19  2  0  0  0
 19 20  1  0  0  0
 20 21  2  0  0  0
 21 22  1  0  0  0
 22 23  2  0  0  0
 23 24  1  0  0  0
 24 25  2  0  0  0
 25 26  1  0  0  0
 26 27  2  0  0  0
  6  7  1  0  0  0
  7  8  1  0  0  0
  8 34  1  0  0  0
 34 35  1  0  0  0
 35 36  2  0  0  0
 36 37  1  0  0  0
 37 38  2  0  0  0
 38 39  1  0  0  0
 39 40  2  0  0  0
  3  9  1  0  0  0
  9 10  2  0  0  0
 10 11  1  0  0  0
 11 12  1  0  0  0
 11 13  2  0  0  0
 13 14  1  0  0  0
 14 15  2  0  0  0
 15 16  1  0  0  0
 16 17  2  0  0  0
 16  1  1  0  0  0
  8  3  1  0  0  0
 40 35  1  0  0  0
 15  9  1  0  0  0
 27 18  1  0  0  0
 27 22  1  0  0  0
 30 33  1  0  0  0
M  END
> <minimizedAffinity>
-8.83871

> <CNNscore>
0.2280732393

> <CNNaffinity>
6.7929015160

> <CNN_VS>
1.5492790937

> <CNNaffinity_variance>
0.3386564851

$$$$



 40 45  0  0  0  0  0  0  0  0999 V2000
    5.1237    2.3327   23.2739 N   0  0  0  0  0  0  0  0  0  0  0  0
    6.4813    1.7178   23.4440 C   0  0  0  0  0  0  0  0  0  0  0  0
    6.6623    0.5397   24.3545 C   0  0  0  0  0  0  0  0  0  0  0  0
    6.9952   -0.6352   25.2256 C   0  0  0  0  0  0  0  0  0  0  0  0
    6.4541   -1.4130   25.9863 O   0  0  0  0  0  0  0  0  0  0  0  0
    8.4640   -0.9093   25.0929 N   0  0  0  0  0  0  0  0  0  0  0  0
    9.0388    0.0962   24.1397 C   0  0  0  0  0  0  0  0  0  0  0  0
    7.9253    0.9917   23.6834 C   0  0  0  0  0  0  0  0  0  0  0  0
    5.4856   -0.0237   25.0950 C   0  0  0  0  0  0  0  0  0  0  0  0
    5.6666   -1.2019   26.0055 C   0  0  0  0  0  0  0  0  0  0  0  0
    4.4900   -1.7653   26.7459 C   0  0  0  0  0  0  0  0  0  0  0  0
    4.6710   -2.9435   27.6564 Cl  0  0  0  0  0  0  0  0  0  0  0  0
    3.1325   -1.1504   26.5758 C   0  0  0  0  0  0  0  0  0  0  0  0
    2.9515    0.0278   25.6653 C   0  0  0  0  0  0  0  0  0  0  0  0
    4.1281    0.5911   24.9249 C   0  0  0  0  0  0  0  0  0  0  0  0
    3.9471    1.7694   24.0143 C   0  0  0  0  0  0  0  0  0  0  0  0
    2.5896    2.3842   23.8442 O   0  0  0  0  0  0  0  0  0  0  0  0
    9.2244   -1.9977   25.7908 C   0  0  0  0  0  0  0  0  0  0  0  0
    8.4877   -3.0452   26.5718 C   0  0  0  0  0  0  0  0  0  0  0  0
    9.2480   -4.1337   27.2697 N   0  0  0  0  0  0  0  0  0  0  0  0
   10.7452   -4.1746   27.1866 C   0  0  0  0  0  0  0  0  0  0  0  0
   11.4819   -3.1271   26.4056 C   0  0  0  0  0  0  0  0  0  0  0  0
   12.9791   -3.1681   26.3225 C   0  0  0  0  0  0  0  0  0  0  0  0
   13.7157   -2.1205   25.5414 C   0  0  0  0  0  0  0  0  0  0  0  0
   12.9553   -1.0321   24.8435 C   0  0  0  0  0  0  0  0  0  0  0  0
   11.4582   -0.9911   24.9267 C   0  0  0  0  0  0  0  0  0  0  0  0
   10.7215   -2.0387   25.7077 C   0  0  0  0  0  0  0  0  0  0  0  0
    4.9428    3.5110   22.3633 C   0  0  0  0  0  0  0  0  0  0  0  0
    3.5829    2.1018   18.9115 C   0  0  0  0  0  0  0  0  0  0  0  0
    4.3963    2.2400   20.1642 N   0  0  0  0  0  0  0  0  0  0  0  0
    4.1294    3.3727   21.1106 C   0  0  0  0  0  0  0  0  0  0  0  0
    3.0491    4.3673   20.8043 O   0  0  0  0  0  0  0  0  0  0  0  0
    5.1053    1.5873   20.3653 H   0  0  0  0  0  0  0  0  0  0  0  0
    8.0525    2.1380   22.7243 C   0  0  0  0  0  0  0  0  0  0  0  0
    9.2706    3.0126   22.7581 C   0  0  0  0  0  0  0  0  0  0  0  0
   10.6291    2.4154   22.5390 C   0  0  0  0  0  0  0  0  0  0  0  0
   11.8472    3.2901   22.5728 C   0  0  0  0  0  0  0  0  0  0  0  0
   11.7068    4.7620   22.8258 C   0  0  0  0  0  0  0  0  0  0  0  0
   10.3484    5.3592   23.0449 C   0  0  0  0  0  0  0  0  0  0  0  0
    9.1302    4.4845   23.0111 C   0  0  0  0  0  0  0  0  0  0  0  0
 29 30  1  0  0  0
 30 31  1  0  0  0
 31 32  2  0  0  0
 31 28  1  0  0  0
 28  1  1  0  0  0
  1  2  1  0  0  0
  3  2  1  0  0  0
  3  4  1  0  0  0
  4  5  2  0  0  0
  4  6  1  0  0  0
  6 18  1  0  0  0
 18 19  2  0  0  0
 19 20  1  0  0  0
 20 21  2  0  0  0
 21 22  1  0  0  0
 22 23  2  0  0  0
 23 24  1  0  0  0
 24 25  2  0  0  0
 25 26  1  0  0  0
 26 27  2  0  0  0
  6  7  1  0  0  0
  7  8  1  0  0  0
  8 34  1  0  0  0
 34 35  1  0  0  0
 35 36  2  0  0  0
 36 37  1  0  0  0
 37 38  2  0  0  0
 38 39  1  0  0  0
 39 40  2  0  0  0
  3  9  1  0  0  0
  9 10  2  0  0  0
 10 11  1  0  0  0
 11 12  1  0  0  0
 11 13  2  0  0  0
 13 14  1  0  0  0
 14 15  2  0  0  0
 15 16  1  0  0  0
 16 17  2  0  0  0
 16  1  1  0  0  0
  8  3  1  0  0  0
 40 35  1  0  0  0
 15  9  1  0  0  0
 27 18  1  0  0  0
 27 22  1  0  0  0
 30 33  1  0  0  0
M  END
> <minimizedAffinity>
-7.49823

> <CNNscore>
0.2193668485

> <CNNaffinity>
6.6515541077

> <CNN_VS>
1.4591304064

> <CNNaffinity_variance>
0.1080419645

$$$$



 40 45  0  0  0  0  0  0  0  0999 V2000
    9.7197    0.9863   23.7805 N   0  0  0  0  0  0  0  0  0  0  0  0
    8.3878    0.4927   24.2626 C   0  0  0  0  0  0  0  0  0  0  0  0
    8.3046   -0.7596   25.0841 C   0  0  0  0  0  0  0  0  0  0  0  0
    8.0662   -1.9891   25.9096 C   0  0  0  0  0  0  0  0  0  0  0  0
    8.6852   -2.8995   26.4239 O   0  0  0  0  0  0  0  0  0  0  0  0
    6.5916   -2.0998   26.1611 N   0  0  0  0  0  0  0  0  0  0  0  0
    5.9186   -0.9387   25.4910 C   0  0  0  0  0  0  0  0  0  0  0  0
    6.9774   -0.1105   24.8254 C   0  0  0  0  0  0  0  0  0  0  0  0
    9.5534   -1.5184   25.4233 C   0  0  0  0  0  0  0  0  0  0  0  0
    9.4702   -2.7707   26.2447 C   0  0  0  0  0  0  0  0  0  0  0  0
   10.7189   -3.5294   26.5840 C   0  0  0  0  0  0  0  0  0  0  0  0
   10.6358   -4.7818   27.4054 Cl  0  0  0  0  0  0  0  0  0  0  0  0
   12.0507   -3.0358   26.1018 C   0  0  0  0  0  0  0  0  0  0  0  0
   12.1339   -1.7835   25.2804 C   0  0  0  0  0  0  0  0  0  0  0  0
   10.8852   -1.0248   24.9411 C   0  0  0  0  0  0  0  0  0  0  0  0
   10.9684    0.2276   24.1197 C   0  0  0  0  0  0  0  0  0  0  0  0
   12.3002    0.7212   23.6375 O   0  0  0  0  0  0  0  0  0  0  0  0
    5.9096   -3.1816   26.9451 C   0  0  0  0  0  0  0  0  0  0  0  0
    5.8001   -3.0713   28.4371 C   0  0  0  0  0  0  0  0  0  0  0  0
    5.1182   -4.1531   29.2210 N   0  0  0  0  0  0  0  0  0  0  0  0
    4.5458   -5.3452   28.5131 C   0  0  0  0  0  0  0  0  0  0  0  0
    4.6553   -5.4555   27.0211 C   0  0  0  0  0  0  0  0  0  0  0  0
    4.0828   -6.6477   26.3132 C   0  0  0  0  0  0  0  0  0  0  0  0
    4.1924   -6.7579   24.8212 C   0  0  0  0  0  0  0  0  0  0  0  0
    4.8743   -5.6760   24.0372 C   0  0  0  0  0  0  0  0  0  0  0  0
    5.4467   -4.4840   24.7452 C   0  0  0  0  0  0  0  0  0  0  0  0
    5.3372   -4.3737   26.2372 C   0  0  0  0  0  0  0  0  0  0  0  0
    9.8028    2.2387   22.9590 C   0  0  0  0  0  0  0  0  0  0  0  0
    6.7013    4.4309   21.8079 C   0  0  0  0  0  0  0  0  0  0  0  0
    7.8958    3.9632   22.5853 N   0  0  0  0  0  0  0  0  0  0  0  0
    8.6082    2.7064   22.1817 C   0  0  0  0  0  0  0  0  0  0  0  0
    8.1260    1.9172   21.0006 O   0  0  0  0  0  0  0  0  0  0  0  0
    8.2123    4.4811   23.3604 H   0  0  0  0  0  0  0  0  0  0  0  0
    6.7489    1.1463   24.0390 C   0  0  0  0  0  0  0  0  0  0  0  0
    5.3970    1.4301   23.4546 C   0  0  0  0  0  0  0  0  0  0  0  0
    5.0199    0.8536   22.1221 C   0  0  0  0  0  0  0  0  0  0  0  0
    3.6679    1.1374   21.5376 C   0  0  0  0  0  0  0  0  0  0  0  0
    2.6931    1.9977   22.2857 C   0  0  0  0  0  0  0  0  0  0  0  0
    3.0700    2.5742   23.6181 C   0  0  0  0  0  0  0  0  0  0  0  0
    4.4221    2.2904   24.2026 C   0  0  0  0  0  0  0  0  0  0  0  0
 29 30  1  0  0  0
 30 31  1  0  0  0
 31 32  2  0  0  0
 31 28  1  0  0  0
 28  1  1  0  0  0
  1  2  1  0  0  0
  3  2  1  0  0  0
  3  4  1  0  0  0
  4  5  2  0  0  0
  4  6  1  0  0  0
  6 18  1  0  0  0
 18 19  2  0  0  0
 19 20  1  0  0  0
 20 21  2  0  0  0
 21 22  1  0  0  0
 22 23  2  0  0  0
 23 24  1  0  0  0
 24 25  2  0  0  0
 25 26  1  0  0  0
 26 27  2  0  0  0
  6  7  1  0  0  0
  7  8  1  0  0  0
  8 34  1  0  0  0
 34 35  1  0  0  0
 35 36  2  0  0  0
 36 37  1  0  0  0
 37 38  2  0  0  0
 38 39  1  0  0  0
 39 40  2  0  0  0
  3  9  1  0  0  0
  9 10  2  0  0  0
 10 11  1  0  0  0
 11 12  1  0  0  0
 11 13  2  0  0  0
 13 14  1  0  0  0
 14 15  2  0  0  0
 15 16  1  0  0  0
 16 17  2  0  0  0
 16  1  1  0  0  0
  8  3  1  0  0  0
 40 35  1  0  0  0
 15  9  1  0  0  0
 27 18  1  0  0  0
 27 22  1  0  0  0
 30 33  1  0  0  0
M  END
> <minimizedAffinity>
-7.52629

> <CNNscore>
0.2063043565

> <CNNaffinity>
6.4227228165

> <CNN_VS>
1.3250356913

> <CNNaffinity_variance>
0.3914290667

$$$$



 40 45  0  0  0  0  0  0  0  0999 V2000
    8.8895   -2.9791   25.6002 N   0  0  0  0  0  0  0  0  0  0  0  0
    8.4974   -2.2402   24.3551 C   0  0  0  0  0  0  0  0  0  0  0  0
    7.1524   -1.5823   24.2654 C   0  0  0  0  0  0  0  0  0  0  0  0
    5.8486   -0.8785   24.0314 C   0  0  0  0  0  0  0  0  0  0  0  0
    4.7986   -0.6510   24.5990 O   0  0  0  0  0  0  0  0  0  0  0  0
    5.8857   -0.2787   22.6570 N   0  0  0  0  0  0  0  0  0  0  0  0
    7.2125   -0.6118   22.0416 C   0  0  0  0  0  0  0  0  0  0  0  0
    7.9953   -1.4175   23.0357 C   0  0  0  0  0  0  0  0  0  0  0  0
    6.1994   -1.6632   25.4210 C   0  0  0  0  0  0  0  0  0  0  0  0
    4.8544   -1.0053   25.3314 C   0  0  0  0  0  0  0  0  0  0  0  0
    3.9014   -1.0863   26.4869 C   0  0  0  0  0  0  0  0  0  0  0  0
    2.5563   -0.4284   26.3973 Cl  0  0  0  0  0  0  0  0  0  0  0  0
    4.2935   -1.8252   27.7320 C   0  0  0  0  0  0  0  0  0  0  0  0
    5.6385   -2.4831   27.8217 C   0  0  0  0  0  0  0  0  0  0  0  0
    6.5914   -2.4021   26.6661 C   0  0  0  0  0  0  0  0  0  0  0  0
    7.9365   -3.0600   26.7557 C   0  0  0  0  0  0  0  0  0  0  0  0
    8.3286   -3.7989   28.0009 O   0  0  0  0  0  0  0  0  0  0  0  0
    4.7887    0.5148   22.0115 C   0  0  0  0  0  0  0  0  0  0  0  0
    3.6914    1.0987   22.8511 C   0  0  0  0  0  0  0  0  0  0  0  0
    2.5943    1.8922   22.2056 N   0  0  0  0  0  0  0  0  0  0  0  0
    2.5946    2.1019   20.7203 C   0  0  0  0  0  0  0  0  0  0  0  0
    3.6920    1.5181   19.8806 C   0  0  0  0  0  0  0  0  0  0  0  0
    3.6923    1.7279   18.3953 C   0  0  0  0  0  0  0  0  0  0  0  0
    4.7896    1.1440   17.5557 C   0  0  0  0  0  0  0  0  0  0  0  0
    5.8867    0.3505   18.2013 C   0  0  0  0  0  0  0  0  0  0  0  0
    5.8864    0.1408   19.6866 C   0  0  0  0  0  0  0  0  0  0  0  0
    4.7890    0.7246   20.5262 C   0  0  0  0  0  0  0  0  0  0  0  0
   10.2346   -3.6370   25.6898 C   0  0  0  0  0  0  0  0  0  0  0  0
   14.0076   -2.6517   26.4271 C   0  0  0  0  0  0  0  0  0  0  0  0
   12.7844   -3.4786   26.1621 N   0  0  0  0  0  0  0  0  0  0  0  0
   11.4577   -2.8101   25.9548 C   0  0  0  0  0  0  0  0  0  0  0  0
   11.3541   -1.3148   26.0124 O   0  0  0  0  0  0  0  0  0  0  0  0
   12.8524   -4.4600   26.1243 H   0  0  0  0  0  0  0  0  0  0  0  0
    9.3783   -1.9626   22.8351 C   0  0  0  0  0  0  0  0  0  0  0  0
   10.5502   -1.0288   22.7687 C   0  0  0  0  0  0  0  0  0  0  0  0
   10.3693    0.4258   23.0872 C   0  0  0  0  0  0  0  0  0  0  0  0
   11.5413    1.3596   23.0208 C   0  0  0  0  0  0  0  0  0  0  0  0
   12.8943    0.8387   22.6358 C   0  0  0  0  0  0  0  0  0  0  0  0
   13.0753   -0.6158   22.3173 C   0  0  0  0  0  0  0  0  0  0  0  0
   11.9033   -1.5496   22.3837 C   0  0  0  0  0  0  0  0  0  0  0  0
 29 30  1  0  0  0
 30 31  1  0  0  0
 31 32  2  0  0  0
 31 28  1  0  0  0
 28  1  1  0  0  0
  1  2  1  0  0  0
  3  2  1  0  0  0
  3  4  1  0  0  0
  4  5  2  0  0  0
  4  6  1  0  0  0
  6 18  1  0  0  0
 18 19  2  0  0  0
 19 20  1  0  0  0
 20 21  2  0  0  0
 21 22  1  0  0  0
 22 23  2  0  0  0
 23 24  1  0  0  0
 24 25  2  0  0  0
 25 26  1  0  0  0
 26 27  2  0  0  0
  6  7  1  0  0  0
  7  8  1  0  0  0
  8 34  1  0  0  0
 34 35  1  0  0  0
 35 36  2  0  0  0
 36 37  1  0  0  0
 37 38  2  0  0  0
 38 39  1  0  0  0
 39 40  2  0  0  0
  3  9  1  0  0  0
  9 10  2  0  0  0
 10 11  1  0  0  0
 11 12  1  0  0  0
 11 13  2  0  0  0
 13 14  1  0  0  0
 14 15  2  0  0  0
 15 16  1  0  0  0
 16 17  2  0  0  0
 16  1  1  0  0  0
  8  3  1  0  0  0
 40 35  1  0  0  0
 15  9  1  0  0  0
 27 18  1  0  0  0
 27 22  1  0  0  0
 30 33  1  0  0  0
M  END
> <minimizedAffinity>
-8.68297

> <CNNscore>
0.1955354512

> <CNNaffinity>
6.5444765091

> <CNN_VS>
1.2796771526

> <CNNaffinity_variance>
0.1822566986

$$$$



 40 45  0  0  0  0  0  0  0  0999 V2000
   10.7929    1.5827   22.8376 N   0  0  0  0  0  0  0  0  0  0  0  0
    9.3973    1.3667   23.3430 C   0  0  0  0  0  0  0  0  0  0  0  0
    9.1047    0.2277   24.2742 C   0  0  0  0  0  0  0  0  0  0  0  0
    8.6630   -0.8623   25.2052 C   0  0  0  0  0  0  0  0  0  0  0  0
    9.1200   -1.8121   25.8097 O   0  0  0  0  0  0  0  0  0  0  0  0
    7.1910   -0.7000   25.4437 N   0  0  0  0  0  0  0  0  0  0  0  0
    6.7230    0.4905   24.6602 C   0  0  0  0  0  0  0  0  0  0  0  0
    7.9057    1.0638   23.9375 C   0  0  0  0  0  0  0  0  0  0  0  0
   10.2079   -0.6952   24.7001 C   0  0  0  0  0  0  0  0  0  0  0  0
    9.9153   -1.8342   25.6313 C   0  0  0  0  0  0  0  0  0  0  0  0
   11.0185   -2.7570   26.0571 C   0  0  0  0  0  0  0  0  0  0  0  0
   10.7260   -3.8961   26.9884 Cl  0  0  0  0  0  0  0  0  0  0  0  0
   12.4141   -2.5410   25.5517 C   0  0  0  0  0  0  0  0  0  0  0  0
   12.7067   -1.4020   24.6205 C   0  0  0  0  0  0  0  0  0  0  0  0
   11.6035   -0.4792   24.1947 C   0  0  0  0  0  0  0  0  0  0  0  0
   11.8961    0.6599   23.2634 C   0  0  0  0  0  0  0  0  0  0  0  0
   13.2917    0.8759   22.7580 O   0  0  0  0  0  0  0  0  0  0  0  0
    6.3370   -1.5745   26.3131 C   0  0  0  0  0  0  0  0  0  0  0  0
    6.9637   -2.6780   27.1128 C   0  0  0  0  0  0  0  0  0  0  0  0
    6.1097   -3.5526   27.9822 N   0  0  0  0  0  0  0  0  0  0  0  0
    4.6290   -3.3235   28.0520 C   0  0  0  0  0  0  0  0  0  0  0  0
    4.0022   -2.2200   27.2523 C   0  0  0  0  0  0  0  0  0  0  0  0
    2.5214   -1.9910   27.3221 C   0  0  0  0  0  0  0  0  0  0  0  0
    1.8947   -0.8874   26.5225 C   0  0  0  0  0  0  0  0  0  0  0  0
    2.7487   -0.0129   25.6531 C   0  0  0  0  0  0  0  0  0  0  0  0
    4.2295   -0.2419   25.5833 C   0  0  0  0  0  0  0  0  0  0  0  0
    4.8562   -1.3455   26.3829 C   0  0  0  0  0  0  0  0  0  0  0  0
   11.0854    2.7217   21.9064 C   0  0  0  0  0  0  0  0  0  0  0  0
   10.6988    6.3800   23.3955 C   0  0  0  0  0  0  0  0  0  0  0  0
   10.3482    5.0304   22.8427 N   0  0  0  0  0  0  0  0  0  0  0  0
   11.4360    4.0714   22.4592 C   0  0  0  0  0  0  0  0  0  0  0  0
   12.8743    4.4620   22.6284 O   0  0  0  0  0  0  0  0  0  0  0  0
    9.4042    4.7740   22.7316 H   0  0  0  0  0  0  0  0  0  0  0  0
    7.8919    2.2627   23.0361 C   0  0  0  0  0  0  0  0  0  0  0  0
    6.6991    2.5350   22.1684 C   0  0  0  0  0  0  0  0  0  0  0  0
    6.1654    1.4603   21.2683 C   0  0  0  0  0  0  0  0  0  0  0  0
    4.9726    1.7327   20.4006 C   0  0  0  0  0  0  0  0  0  0  0  0
    4.3135    3.0797   20.4329 C   0  0  0  0  0  0  0  0  0  0  0  0
    4.8471    4.1544   21.3330 C   0  0  0  0  0  0  0  0  0  0  0  0
    6.0400    3.8821   22.2008 C   0  0  0  0  0  0  0  0  0  0  0  0
 29 30  1  0  0  0
 30 31  1  0  0  0
 31 32  2  0  0  0
 31 28  1  0  0  0
 28  1  1  0  0  0
  1  2  1  0  0  0
  3  2  1  0  0  0
  3  4  1  0  0  0
  4  5  2  0  0  0
  4  6  1  0  0  0
  6 18  1  0  0  0
 18 19  2  0  0  0
 19 20  1  0  0  0
 20 21  2  0  0  0
 21 22  1  0  0  0
 22 23  2  0  0  0
 23 24  1  0  0  0
 24 25  2  0  0  0
 25 26  1  0  0  0
 26 27  2  0  0  0
  6  7  1  0  0  0
  7  8  1  0  0  0
  8 34  1  0  0  0
 34 35  1  0  0  0
 35 36  2  0  0  0
 36 37  1  0  0  0
 37 38  2  0  0  0
 38 39  1  0  0  0
 39 40  2  0  0  0
  3  9  1  0  0  0
  9 10  2  0  0  0
 10 11  1  0  0  0
 11 12  1  0  0  0
 11 13  2  0  0  0
 13 14  1  0  0  0
 14 15  2  0  0  0
 15 16  1  0  0  0
 16 17  2  0  0  0
 16  1  1  0  0  0
  8  3  1  0  0  0
 40 35  1  0  0  0
 15  9  1  0  0  0
 27 18  1  0  0  0
 27 22  1  0  0  0
 30 33  1  0  0  0
M  END
> <minimizedAffinity>
-8.39448

> <CNNscore>
0.1766308546

> <CNNaffinity>
6.6645040512

> <CNN_VS>
1.1771570444

> <CNNaffinity_variance>
0.1995363683

$$$$



 40 45  0  0  0  0  0  0  0  0999 V2000
    8.3736    0.9956   22.8649 N   0  0  0  0  0  0  0  0  0  0  0  0
    8.4498   -0.0672   23.9207 C   0  0  0  0  0  0  0  0  0  0  0  0
    7.2171   -0.4605   24.6794 C   0  0  0  0  0  0  0  0  0  0  0  0
    6.0747   -0.9562   25.5156 C   0  0  0  0  0  0  0  0  0  0  0  0
    4.8846   -0.7673   25.6713 O   0  0  0  0  0  0  0  0  0  0  0  0
    6.6007   -2.0162   26.4374 N   0  0  0  0  0  0  0  0  0  0  0  0
    8.0682   -2.1757   26.1709 C   0  0  0  0  0  0  0  0  0  0  0  0
    8.4491   -1.2142   25.0844 C   0  0  0  0  0  0  0  0  0  0  0  0
    5.9080    0.2090   24.3823 C   0  0  0  0  0  0  0  0  0  0  0  0
    4.6753   -0.1843   25.1410 C   0  0  0  0  0  0  0  0  0  0  0  0
    3.3663    0.4852   24.8439 C   0  0  0  0  0  0  0  0  0  0  0  0
    2.1335    0.0919   25.6026 Cl  0  0  0  0  0  0  0  0  0  0  0  0
    3.2901    1.5480   23.7881 C   0  0  0  0  0  0  0  0  0  0  0  0
    4.5228    1.9413   23.0294 C   0  0  0  0  0  0  0  0  0  0  0  0
    5.8318    1.2718   23.3265 C   0  0  0  0  0  0  0  0  0  0  0  0
    7.0646    1.6651   22.5678 C   0  0  0  0  0  0  0  0  0  0  0  0
    6.9884    2.7279   21.5121 O   0  0  0  0  0  0  0  0  0  0  0  0
    5.7998   -2.7823   27.4482 C   0  0  0  0  0  0  0  0  0  0  0  0
    5.6232   -2.2372   28.8344 C   0  0  0  0  0  0  0  0  0  0  0  0
    4.8223   -3.0032   29.8452 N   0  0  0  0  0  0  0  0  0  0  0  0
    4.1980   -4.3144   29.4697 C   0  0  0  0  0  0  0  0  0  0  0  0
    4.3745   -4.8595   28.0834 C   0  0  0  0  0  0  0  0  0  0  0  0
    3.7501   -6.1707   27.7080 C   0  0  0  0  0  0  0  0  0  0  0  0
    3.9267   -6.7158   26.3217 C   0  0  0  0  0  0  0  0  0  0  0  0
    4.7276   -5.9497   25.3109 C   0  0  0  0  0  0  0  0  0  0  0  0
    5.3520   -4.6385   25.6864 C   0  0  0  0  0  0  0  0  0  0  0  0
    5.1754   -4.0934   27.0727 C   0  0  0  0  0  0  0  0  0  0  0  0
    9.6064    1.3889   22.1062 C   0  0  0  0  0  0  0  0  0  0  0  0
   11.3509    4.8911   22.7705 C   0  0  0  0  0  0  0  0  0  0  0  0
   10.4249    3.8525   22.2103 N   0  0  0  0  0  0  0  0  0  0  0  0
   10.5323    2.4276   22.6664 C   0  0  0  0  0  0  0  0  0  0  0  0
   11.5657    2.0413   23.6828 O   0  0  0  0  0  0  0  0  0  0  0  0
    9.7467    4.1060   21.5432 H   0  0  0  0  0  0  0  0  0  0  0  0
    9.8213   -1.0374   24.5047 C   0  0  0  0  0  0  0  0  0  0  0  0
   10.9967   -1.7213   25.1376 C   0  0  0  0  0  0  0  0  0  0  0  0
   12.3453   -1.0649   25.1198 C   0  0  0  0  0  0  0  0  0  0  0  0
   13.5207   -1.7488   25.7527 C   0  0  0  0  0  0  0  0  0  0  0  0
   13.3475   -3.0891   26.4035 C   0  0  0  0  0  0  0  0  0  0  0  0
   11.9990   -3.7456   26.4213 C   0  0  0  0  0  0  0  0  0  0  0  0
   10.8235   -3.0617   25.7884 C   0  0  0  0  0  0  0  0  0  0  0  0
 29 30  1  0  0  0
 30 31  1  0  0  0
 31 32  2  0  0  0
 31 28  1  0  0  0
 28  1  1  0  0  0
  1  2  1  0  0  0
  3  2  1  0  0  0
  3  4  1  0  0  0
  4  5  2  0  0  0
  4  6  1  0  0  0
  6 18  1  0  0  0
 18 19  2  0  0  0
 19 20  1  0  0  0
 20 21  2  0  0  0
 21 22  1  0  0  0
 22 23  2  0  0  0
 23 24  1  0  0  0
 24 25  2  0  0  0
 25 26  1  0  0  0
 26 27  2  0  0  0
  6  7  1  0  0  0
  7  8  1  0  0  0
  8 34  1  0  0  0
 34 35  1  0  0  0
 35 36  2  0  0  0
 36 37  1  0  0  0
 37 38  2  0  0  0
 38 39  1  0  0  0
 39 40  2  0  0  0
  3  9  1  0  0  0
  9 10  2  0  0  0
 10 11  1  0  0  0
 11 12  1  0  0  0
 11 13  2  0  0  0
 13 14  1  0  0  0
 14 15  2  0  0  0
 15 16  1  0  0  0
 16 17  2  0  0  0
 16  1  1  0  0  0
  8  3  1  0  0  0
 40 35  1  0  0  0
 15  9  1  0  0  0
 27 18  1  0  0  0
 27 22  1  0  0  0
 30 33  1  0  0  0
M  END
> <minimizedAffinity>
-7.73794

> <CNNscore>
0.1753535122

> <CNNaffinity>
6.5936889648

> <CNN_VS>
1.1562265158

> <CNNaffinity_variance>
0.1335910857

$$$$
