


 40 45  0  0  0  0  0  0  0  0999 V2000
   -7.4361   -1.3831  -24.1956 N   0  0  0  0  0  0  0  0  0  0  0  0
   -7.8186    0.0615  -24.3253 C   0  0  0  0  0  0  0  0  0  0  0  0
   -9.2368    0.4864  -24.0845 C   0  0  0  0  0  0  0  0  0  0  0  0
  -10.6079    1.0578  -23.8753 C   0  0  0  0  0  0  0  0  0  0  0  0
  -11.7312    0.6987  -23.5828 O   0  0  0  0  0  0  0  0  0  0  0  0
  -10.5338    2.5378  -24.1077 N   0  0  0  0  0  0  0  0  0  0  0  0
   -9.1169    2.8812  -24.4606 C   0  0  0  0  0  0  0  0  0  0  0  0
   -8.3154    1.6134  -24.4462 C   0  0  0  0  0  0  0  0  0  0  0  0
  -10.2727   -0.5333  -23.7141 C   0  0  0  0  0  0  0  0  0  0  0  0
  -11.6910   -0.1084  -23.4733 C   0  0  0  0  0  0  0  0  0  0  0  0
  -12.7268   -1.1281  -23.1029 C   0  0  0  0  0  0  0  0  0  0  0  0
  -14.1451   -0.7032  -22.8621 Cl  0  0  0  0  0  0  0  0  0  0  0  0
  -12.3443   -2.5727  -22.9732 C   0  0  0  0  0  0  0  0  0  0  0  0
  -10.9261   -2.9976  -23.2139 C   0  0  0  0  0  0  0  0  0  0  0  0
   -9.8903   -1.9779  -23.5844 C   0  0  0  0  0  0  0  0  0  0  0  0
   -8.4719   -2.4028  -23.8251 C   0  0  0  0  0  0  0  0  0  0  0  0
   -8.0895   -3.8474  -23.6954 O   0  0  0  0  0  0  0  0  0  0  0  0
  -11.6760    3.5046  -24.0052 C   0  0  0  0  0  0  0  0  0  0  0  0
  -12.4446    3.6243  -22.7226 C   0  0  0  0  0  0  0  0  0  0  0  0
  -13.5869    4.5911  -22.6201 N   0  0  0  0  0  0  0  0  0  0  0  0
  -13.9605    5.4383  -23.8002 C   0  0  0  0  0  0  0  0  0  0  0  0
  -13.1919    5.3187  -25.0828 C   0  0  0  0  0  0  0  0  0  0  0  0
  -13.5656    6.1659  -26.2629 C   0  0  0  0  0  0  0  0  0  0  0  0
  -12.7969    6.0462  -27.5454 C   0  0  0  0  0  0  0  0  0  0  0  0
  -11.6547    5.0794  -27.6479 C   0  0  0  0  0  0  0  0  0  0  0  0
  -11.2810    4.2322  -26.4678 C   0  0  0  0  0  0  0  0  0  0  0  0
  -12.0496    4.3518  -25.1853 C   0  0  0  0  0  0  0  0  0  0  0  0
   -6.0178   -1.8080  -24.4363 C   0  0  0  0  0  0  0  0  0  0  0  0
   -4.9777   -5.2708  -26.0725 C   0  0  0  0  0  0  0  0  0  0  0  0
   -5.2826   -4.2254  -25.0409 N   0  0  0  0  0  0  0  0  0  0  0  0
   -5.7129   -2.8534  -25.4679 C   0  0  0  0  0  0  0  0  0  0  0  0
   -5.8384   -2.5267  -26.9266 O   0  0  0  0  0  0  0  0  0  0  0  0
   -5.2002   -4.4398  -24.0836 H   0  0  0  0  0  0  0  0  0  0  0  0
   -6.8496    1.4936  -24.7418 C   0  0  0  0  0  0  0  0  0  0  0  0
   -5.8492    2.1938  -23.8707 C   0  0  0  0  0  0  0  0  0  0  0  0
   -5.8762    1.9906  -22.3848 C   0  0  0  0  0  0  0  0  0  0  0  0
   -4.8757    2.6908  -21.5138 C   0  0  0  0  0  0  0  0  0  0  0  0
   -3.8482    3.5942  -22.1287 C   0  0  0  0  0  0  0  0  0  0  0  0
   -3.8211    3.7974  -23.6146 C   0  0  0  0  0  0  0  0  0  0  0  0
   -4.8217    3.0972  -24.4857 C   0  0  0  0  0  0  0  0  0  0  0  0
 29 30  1  0  0  0
 30 31  1  0  0  0
 31 32  2  0  0  0
 31 28  1  0  0  0
 28  1  1  0  0  0
  1  2  1  0  0  0
  3  2  1  0  0  0
  3  4  1  0  0  0
  4  5  2  0  0  0
  4  6  1  0  0  0
  6 18  1  0  0  0
 18 19  2  0  0  0
 19 20  1  0  0  0
 20 21  2  0  0  0
 21 22  1  0  0  0
 22 23  2  0  0  0
 23 24  1  0  0  0
 24 25  2  0  0  0
 25 26  1  0  0  0
 26 27  2  0  0  0
  6  7  1  0  0  0
  7  8  1  0  0  0
  8 34  1  0  0  0
 34 35  1  0  0  0
 35 36  2  0  0  0
 36 37  1  0  0  0
 37 38  2  0  0  0
 38 39  1  0  0  0
 39 40  2  0  0  0
  3  9  1  0  0  0
  9 10  2  0  0  0
 10 11  1  0  0  0
 11 12  1  0  0  0
 11 13  2  0  0  0
 13 14  1  0  0  0
 14 15  2  0  0  0
 15 16  1  0  0  0
 16 17  2  0  0  0
 16  1  1  0  0  0
  8  3  1  0  0  0
 40 35  1  0  0  0
 15  9  1  0  0  0
 27 18  1  0  0  0
 27 22  1  0  0  0
 30 33  1  0  0  0
M  END
> <minimizedAffinity>
-7.34598

> <CNNscore>
0.6876571178

> <CNNaffinity>
6.8974051476

> <CNN_VS>
4.7430496216

> <CNNaffinity_variance>
0.1089360937

$$$$



 40 45  0  0  0  0  0  0  0  0999 V2000
   -7.3246   -1.1404  -22.2501 N   0  0  0  0  0  0  0  0  0  0  0  0
   -7.5772    0.2905  -22.6227 C   0  0  0  0  0  0  0  0  0  0  0  0
   -8.9669    0.7438  -22.9590 C   0  0  0  0  0  0  0  0  0  0  0  0
  -10.2956    1.3400  -23.3182 C   0  0  0  0  0  0  0  0  0  0  0  0
  -11.4602    1.0147  -23.4371 O   0  0  0  0  0  0  0  0  0  0  0  0
  -10.0850    2.7944  -23.6190 N   0  0  0  0  0  0  0  0  0  0  0  0
   -8.6261    3.0970  -23.4458 C   0  0  0  0  0  0  0  0  0  0  0  0
   -7.9351    1.8297  -23.0379 C   0  0  0  0  0  0  0  0  0  0  0  0
  -10.1041   -0.2337  -22.9227 C   0  0  0  0  0  0  0  0  0  0  0  0
  -11.4938    0.2196  -23.2590 C   0  0  0  0  0  0  0  0  0  0  0  0
  -12.6309   -0.7579  -23.2227 C   0  0  0  0  0  0  0  0  0  0  0  0
  -14.0207   -0.3046  -23.5591 Cl  0  0  0  0  0  0  0  0  0  0  0  0
  -12.3783   -2.1888  -22.8501 C   0  0  0  0  0  0  0  0  0  0  0  0
  -10.9886   -2.6421  -22.5138 C   0  0  0  0  0  0  0  0  0  0  0  0
   -9.8515   -1.6646  -22.5501 C   0  0  0  0  0  0  0  0  0  0  0  0
   -8.4617   -2.1179  -22.2138 C   0  0  0  0  0  0  0  0  0  0  0  0
   -8.2091   -3.5488  -21.8412 O   0  0  0  0  0  0  0  0  0  0  0  0
  -11.1469    3.7740  -24.0223 C   0  0  0  0  0  0  0  0  0  0  0  0
  -12.1226    4.2842  -23.0035 C   0  0  0  0  0  0  0  0  0  0  0  0
  -13.1845    5.2639  -23.4068 N   0  0  0  0  0  0  0  0  0  0  0  0
  -13.2707    5.7334  -24.8288 C   0  0  0  0  0  0  0  0  0  0  0  0
  -12.2950    5.2232  -25.8475 C   0  0  0  0  0  0  0  0  0  0  0  0
  -12.3812    5.6928  -27.2696 C   0  0  0  0  0  0  0  0  0  0  0  0
  -11.4055    5.1826  -28.2882 C   0  0  0  0  0  0  0  0  0  0  0  0
  -10.3436    4.2029  -27.8850 C   0  0  0  0  0  0  0  0  0  0  0  0
  -10.2574    3.7334  -26.4630 C   0  0  0  0  0  0  0  0  0  0  0  0
  -11.2331    4.2436  -25.4443 C   0  0  0  0  0  0  0  0  0  0  0  0
   -5.9348   -1.5937  -21.9137 C   0  0  0  0  0  0  0  0  0  0  0  0
   -5.5330   -5.5419  -21.8960 C   0  0  0  0  0  0  0  0  0  0  0  0
   -5.7681   -4.1433  -22.3846 N   0  0  0  0  0  0  0  0  0  0  0  0
   -5.6997   -2.9923  -21.4252 C   0  0  0  0  0  0  0  0  0  0  0  0
   -5.3963   -3.2399  -19.9772 O   0  0  0  0  0  0  0  0  0  0  0  0
   -5.9673   -3.9808  -23.3349 H   0  0  0  0  0  0  0  0  0  0  0  0
   -6.4695    1.6754  -22.7580 C   0  0  0  0  0  0  0  0  0  0  0  0
   -5.5917    2.8882  -22.6661 C   0  0  0  0  0  0  0  0  0  0  0  0
   -4.0995    2.7365  -22.6757 C   0  0  0  0  0  0  0  0  0  0  0  0
   -3.2217    3.9493  -22.5838 C   0  0  0  0  0  0  0  0  0  0  0  0
   -3.8362    5.3139  -22.4824 C   0  0  0  0  0  0  0  0  0  0  0  0
   -5.3284    5.4657  -22.4727 C   0  0  0  0  0  0  0  0  0  0  0  0
   -6.2063    4.2528  -22.5646 C   0  0  0  0  0  0  0  0  0  0  0  0
 29 30  1  0  0  0
 30 31  1  0  0  0
 31 32  2  0  0  0
 31 28  1  0  0  0
 28  1  1  0  0  0
  1  2  1  0  0  0
  3  2  1  0  0  0
  3  4  1  0  0  0
  4  5  2  0  0  0
  4  6  1  0  0  0
  6 18  1  0  0  0
 18 19  2  0  0  0
 19 20  1  0  0  0
 20 21  2  0  0  0
 21 22  1  0  0  0
 22 23  2  0  0  0
 23 24  1  0  0  0
 24 25  2  0  0  0
 25 26  1  0  0  0
 26 27  2  0  0  0
  6  7  1  0  0  0
  7  8  1  0  0  0
  8 34  1  0  0  0
 34 35  1  0  0  0
 35 36  2  0  0  0
 36 37  1  0  0  0
 37 38  2  0  0  0
 38 39  1  0  0  0
 39 40  2  0  0  0
  3  9  1  0  0  0
  9 10  2  0  0  0
 10 11  1  0  0  0
 11 12  1  0  0  0
 11 13  2  0  0  0
 13 14  1  0  0  0
 14 15  2  0  0  0
 15 16  1  0  0  0
 16 17  2  0  0  0
 16  1  1  0  0  0
  8  3  1  0  0  0
 40 35  1  0  0  0
 15  9  1  0  0  0
 27 18  1  0  0  0
 27 22  1  0  0  0
 30 33  1  0  0  0
M  END
> <minimizedAffinity>
-7.55001

> <CNNscore>
0.4781773686

> <CNNaffinity>
6.8408842087

> <CNN_VS>
3.2711560726

> <CNNaffinity_variance>
0.1270265728

$$$$



 40 45  0  0  0  0  0  0  0  0999 V2000
   -7.4044   -2.0071  -23.3397 N   0  0  0  0  0  0  0  0  0  0  0  0
   -7.4171   -0.6306  -23.9357 C   0  0  0  0  0  0  0  0  0  0  0  0
   -8.7170    0.0947  -24.1203 C   0  0  0  0  0  0  0  0  0  0  0  0
   -9.9329    0.9384  -24.3647 C   0  0  0  0  0  0  0  0  0  0  0  0
  -11.1392    0.8953  -24.2253 O   0  0  0  0  0  0  0  0  0  0  0  0
   -9.4835    2.2343  -24.9720 N   0  0  0  0  0  0  0  0  0  0  0  0
   -7.9899    2.1915  -25.1029 C   0  0  0  0  0  0  0  0  0  0  0  0
   -7.5162    0.8691  -24.5765 C   0  0  0  0  0  0  0  0  0  0  0  0
  -10.0043   -0.5564  -23.7089 C   0  0  0  0  0  0  0  0  0  0  0  0
  -11.3042    0.1689  -23.8936 C   0  0  0  0  0  0  0  0  0  0  0  0
  -12.5913   -0.4823  -23.4822 C   0  0  0  0  0  0  0  0  0  0  0  0
  -13.8913    0.2431  -23.6668 Cl  0  0  0  0  0  0  0  0  0  0  0  0
  -12.5785   -1.8587  -22.8862 C   0  0  0  0  0  0  0  0  0  0  0  0
  -11.2786   -2.5840  -22.7016 C   0  0  0  0  0  0  0  0  0  0  0  0
   -9.9915   -1.9329  -23.1129 C   0  0  0  0  0  0  0  0  0  0  0  0
   -8.6915   -2.6582  -22.9283 C   0  0  0  0  0  0  0  0  0  0  0  0
   -8.6787   -4.0347  -22.3323 O   0  0  0  0  0  0  0  0  0  0  0  0
  -10.3718    3.3730  -25.3772 C   0  0  0  0  0  0  0  0  0  0  0  0
  -10.2323    3.9851  -26.7395 C   0  0  0  0  0  0  0  0  0  0  0  0
  -11.1206    5.1238  -27.1448 N   0  0  0  0  0  0  0  0  0  0  0  0
  -12.1484    5.6505  -26.1876 C   0  0  0  0  0  0  0  0  0  0  0  0
  -12.2880    5.0384  -24.8253 C   0  0  0  0  0  0  0  0  0  0  0  0
  -13.3159    5.5652  -23.8681 C   0  0  0  0  0  0  0  0  0  0  0  0
  -13.4553    4.9531  -22.5058 C   0  0  0  0  0  0  0  0  0  0  0  0
  -12.5670    3.8144  -22.1006 C   0  0  0  0  0  0  0  0  0  0  0  0
  -11.5392    3.2877  -23.0577 C   0  0  0  0  0  0  0  0  0  0  0  0
  -11.3997    3.8997  -24.4201 C   0  0  0  0  0  0  0  0  0  0  0  0
   -6.1044   -2.7324  -23.1550 C   0  0  0  0  0  0  0  0  0  0  0  0
   -5.7058   -6.5460  -22.1315 C   0  0  0  0  0  0  0  0  0  0  0  0
   -5.7501   -5.0497  -22.0351 N   0  0  0  0  0  0  0  0  0  0  0  0
   -6.0601   -4.2286  -23.2515 C   0  0  0  0  0  0  0  0  0  0  0  0
   -6.3259   -4.9038  -24.5643 O   0  0  0  0  0  0  0  0  0  0  0  0
   -5.5756   -4.6066  -21.1734 H   0  0  0  0  0  0  0  0  0  0  0  0
   -6.0917    0.4031  -24.5169 C   0  0  0  0  0  0  0  0  0  0  0  0
   -5.1473    1.0033  -23.5179 C   0  0  0  0  0  0  0  0  0  0  0  0
   -5.6231    2.0810  -22.5894 C   0  0  0  0  0  0  0  0  0  0  0  0
   -4.6787    2.6812  -21.5905 C   0  0  0  0  0  0  0  0  0  0  0  0
   -3.2585    2.2036  -21.5201 C   0  0  0  0  0  0  0  0  0  0  0  0
   -2.7827    1.1259  -22.4485 C   0  0  0  0  0  0  0  0  0  0  0  0
   -3.7271    0.5257  -23.4475 C   0  0  0  0  0  0  0  0  0  0  0  0
 29 30  1  0  0  0
 30 31  1  0  0  0
 31 32  2  0  0  0
 31 28  1  0  0  0
 28  1  1  0  0  0
  1  2  1  0  0  0
  3  2  1  0  0  0
  3  4  1  0  0  0
  4  5  2  0  0  0
  4  6  1  0  0  0
  6 18  1  0  0  0
 18 19  2  0  0  0
 19 20  1  0  0  0
 20 21  2  0  0  0
 21 22  1  0  0  0
 22 23  2  0  0  0
 23 24  1  0  0  0
 24 25  2  0  0  0
 25 26  1  0  0  0
 26 27  2  0  0  0
  6  7  1  0  0  0
  7  8  1  0  0  0
  8 34  1  0  0  0
 34 35  1  0  0  0
 35 36  2  0  0  0
 36 37  1  0  0  0
 37 38  2  0  0  0
 38 39  1  0  0  0
 39 40  2  0  0  0
  3  9  1  0  0  0
  9 10  2  0  0  0
 10 11  1  0  0  0
 11 12  1  0  0  0
 11 13  2  0  0  0
 13 14  1  0  0  0
 14 15  2  0  0  0
 15 16  1  0  0  0
 16 17  2  0  0  0
 16  1  1  0  0  0
  8  3  1  0  0  0
 40 35  1  0  0  0
 15  9  1  0  0  0
 27 18  1  0  0  0
 27 22  1  0  0  0
 30 33  1  0  0  0
M  END
> <minimizedAffinity>
-7.14641

> <CNNscore>
0.4393855631

> <CNNaffinity>
6.8033661842

> <CNN_VS>
2.9893009663

> <CNNaffinity_variance>
0.2051537484

$$$$



 40 45  0  0  0  0  0  0  0  0999 V2000
  -11.5083    3.8384  -24.1323 N   0  0  0  0  0  0  0  0  0  0  0  0
  -10.1551    3.1963  -24.0521 C   0  0  0  0  0  0  0  0  0  0  0  0
  -10.0365    1.7317  -23.7508 C   0  0  0  0  0  0  0  0  0  0  0  0
   -9.7624    0.2860  -23.4597 C   0  0  0  0  0  0  0  0  0  0  0  0
  -10.3596   -0.7448  -23.2206 O   0  0  0  0  0  0  0  0  0  0  0  0
   -8.2763    0.0834  -23.4766 N   0  0  0  0  0  0  0  0  0  0  0  0
   -7.6318    1.4039  -23.7781 C   0  0  0  0  0  0  0  0  0  0  0  0
   -8.7197    2.4226  -23.9476 C   0  0  0  0  0  0  0  0  0  0  0  0
  -11.2713    0.9091  -23.5298 C   0  0  0  0  0  0  0  0  0  0  0  0
  -11.1527   -0.5555  -23.2286 C   0  0  0  0  0  0  0  0  0  0  0  0
  -12.3874   -1.3781  -23.0076 C   0  0  0  0  0  0  0  0  0  0  0  0
  -12.2689   -2.8428  -22.7063 Cl  0  0  0  0  0  0  0  0  0  0  0  0
  -13.7407   -0.7360  -23.0878 C   0  0  0  0  0  0  0  0  0  0  0  0
  -13.8592    0.7286  -23.3891 C   0  0  0  0  0  0  0  0  0  0  0  0
  -12.6245    1.5512  -23.6100 C   0  0  0  0  0  0  0  0  0  0  0  0
  -12.7430    3.0159  -23.9113 C   0  0  0  0  0  0  0  0  0  0  0  0
  -14.0963    3.6580  -23.9915 O   0  0  0  0  0  0  0  0  0  0  0  0
   -7.5603   -1.2123  -23.2345 C   0  0  0  0  0  0  0  0  0  0  0  0
   -6.9662   -1.5006  -21.8876 C   0  0  0  0  0  0  0  0  0  0  0  0
   -6.2503   -2.7963  -21.6455 N   0  0  0  0  0  0  0  0  0  0  0  0
   -6.1283   -3.8036  -22.7502 C   0  0  0  0  0  0  0  0  0  0  0  0
   -6.7224   -3.5153  -24.0970 C   0  0  0  0  0  0  0  0  0  0  0  0
   -6.6004   -4.5227  -25.2018 C   0  0  0  0  0  0  0  0  0  0  0  0
   -7.1944   -4.2342  -26.5486 C   0  0  0  0  0  0  0  0  0  0  0  0
   -7.9104   -2.9386  -26.7908 C   0  0  0  0  0  0  0  0  0  0  0  0
   -8.0324   -1.9313  -25.6860 C   0  0  0  0  0  0  0  0  0  0  0  0
   -7.4383   -2.2196  -24.3392 C   0  0  0  0  0  0  0  0  0  0  0  0
  -11.6268    5.3031  -24.4335 C   0  0  0  0  0  0  0  0  0  0  0  0
  -14.0221    6.3773  -27.4099 C   0  0  0  0  0  0  0  0  0  0  0  0
  -13.5572    5.9250  -26.0573 N   0  0  0  0  0  0  0  0  0  0  0  0
  -12.0917    5.7554  -25.7860 C   0  0  0  0  0  0  0  0  0  0  0  0
  -11.0912    6.0381  -26.8673 O   0  0  0  0  0  0  0  0  0  0  0  0
  -14.2139    5.7395  -25.3477 H   0  0  0  0  0  0  0  0  0  0  0  0
   -8.5250    3.8769  -24.2591 C   0  0  0  0  0  0  0  0  0  0  0  0
   -7.3685    4.6233  -23.6632 C   0  0  0  0  0  0  0  0  0  0  0  0
   -7.5776    5.4934  -22.4594 C   0  0  0  0  0  0  0  0  0  0  0  0
   -6.4210    6.2398  -21.8634 C   0  0  0  0  0  0  0  0  0  0  0  0
   -5.0553    6.1161  -22.4714 C   0  0  0  0  0  0  0  0  0  0  0  0
   -4.8461    5.2461  -23.6751 C   0  0  0  0  0  0  0  0  0  0  0  0
   -6.0027    4.4996  -24.2711 C   0  0  0  0  0  0  0  0  0  0  0  0
 29 30  1  0  0  0
 30 31  1  0  0  0
 31 32  2  0  0  0
 31 28  1  0  0  0
 28  1  1  0  0  0
  1  2  1  0  0  0
  3  2  1  0  0  0
  3  4  1  0  0  0
  4  5  2  0  0  0
  4  6  1  0  0  0
  6 18  1  0  0  0
 18 19  2  0  0  0
 19 20  1  0  0  0
 20 21  2  0  0  0
 21 22  1  0  0  0
 22 23  2  0  0  0
 23 24  1  0  0  0
 24 25  2  0  0  0
 25 26  1  0  0  0
 26 27  2  0  0  0
  6  7  1  0  0  0
  7  8  1  0  0  0
  8 34  1  0  0  0
 34 35  1  0  0  0
 35 36  2  0  0  0
 36 37  1  0  0  0
 37 38  2  0  0  0
 38 39  1  0  0  0
 39 40  2  0  0  0
  3  9  1  0  0  0
  9 10  2  0  0  0
 10 11  1  0  0  0
 11 12  1  0  0  0
 11 13  2  0  0  0
 13 14  1  0  0  0
 14 15  2  0  0  0
 15 16  1  0  0  0
 16 17  2  0  0  0
 16  1  1  0  0  0
  8  3  1  0  0  0
 40 35  1  0  0  0
 15  9  1  0  0  0
 27 18  1  0  0  0
 27 22  1  0  0  0
 30 33  1  0  0  0
M  END
> <minimizedAffinity>
-7.55855

> <CNNscore>
0.4376051426

> <CNNaffinity>
6.7873015404

> <CNN_VS>
2.9701581001

> <CNNaffinity_variance>
0.2445707321

$$$$



 40 45  0  0  0  0  0  0  0  0999 V2000
  -11.6274    3.9600  -24.0495 N   0  0  0  0  0  0  0  0  0  0  0  0
  -10.2389    3.3968  -23.9808 C   0  0  0  0  0  0  0  0  0  0  0  0
  -10.0350    1.9333  -23.7229 C   0  0  0  0  0  0  0  0  0  0  0  0
   -9.6770    0.4981  -23.4738 C   0  0  0  0  0  0  0  0  0  0  0  0
  -10.2130   -0.5729  -23.2691 O   0  0  0  0  0  0  0  0  0  0  0  0
   -8.1814    0.3842  -23.4882 N   0  0  0  0  0  0  0  0  0  0  0  0
   -7.6151    1.7490  -23.7462 C   0  0  0  0  0  0  0  0  0  0  0  0
   -8.7607    2.7064  -23.8913 C   0  0  0  0  0  0  0  0  0  0  0  0
  -11.2198    1.0329  -23.5338 C   0  0  0  0  0  0  0  0  0  0  0  0
  -11.0159   -0.4306  -23.2760 C   0  0  0  0  0  0  0  0  0  0  0  0
  -12.2007   -1.3310  -23.0868 C   0  0  0  0  0  0  0  0  0  0  0  0
  -11.9969   -2.7946  -22.8290 Cl  0  0  0  0  0  0  0  0  0  0  0  0
  -13.5892   -0.7678  -23.1556 C   0  0  0  0  0  0  0  0  0  0  0  0
  -13.7931    0.6957  -23.4134 C   0  0  0  0  0  0  0  0  0  0  0  0
  -12.6083    1.5961  -23.6025 C   0  0  0  0  0  0  0  0  0  0  0  0
  -12.8121    3.0597  -23.8604 C   0  0  0  0  0  0  0  0  0  0  0  0
  -14.2007    3.6229  -23.9291 O   0  0  0  0  0  0  0  0  0  0  0  0
   -7.3909   -0.8736  -23.2809 C   0  0  0  0  0  0  0  0  0  0  0  0
   -7.1275   -1.7930  -24.4365 C   0  0  0  0  0  0  0  0  0  0  0  0
   -6.3370   -3.0508  -24.2292 N   0  0  0  0  0  0  0  0  0  0  0  0
   -5.8100   -3.3893  -22.8663 C   0  0  0  0  0  0  0  0  0  0  0  0
   -6.0734   -2.4700  -21.7107 C   0  0  0  0  0  0  0  0  0  0  0  0
   -5.5463   -2.8086  -20.3477 C   0  0  0  0  0  0  0  0  0  0  0  0
   -5.8098   -1.8892  -19.1921 C   0  0  0  0  0  0  0  0  0  0  0  0
   -6.6003   -0.6314  -19.3994 C   0  0  0  0  0  0  0  0  0  0  0  0
   -7.1273   -0.2929  -20.7623 C   0  0  0  0  0  0  0  0  0  0  0  0
   -6.8639   -1.2122  -21.9179 C   0  0  0  0  0  0  0  0  0  0  0  0
  -11.8312    5.4236  -24.3073 C   0  0  0  0  0  0  0  0  0  0  0  0
  -14.0043    6.4177  -27.4758 C   0  0  0  0  0  0  0  0  0  0  0  0
  -13.6375    5.9423  -26.1013 N   0  0  0  0  0  0  0  0  0  0  0  0
  -12.1980    5.8990  -25.6819 C   0  0  0  0  0  0  0  0  0  0  0  0
  -11.1252    6.3312  -26.6372 O   0  0  0  0  0  0  0  0  0  0  0  0
  -14.3416    5.6586  -25.4743 H   0  0  0  0  0  0  0  0  0  0  0  0
   -8.6511    4.1784  -24.1580 C   0  0  0  0  0  0  0  0  0  0  0  0
   -7.4615    4.9444  -23.6601 C   0  0  0  0  0  0  0  0  0  0  0  0
   -7.6001    5.8627  -22.4821 C   0  0  0  0  0  0  0  0  0  0  0  0
   -6.4104    6.6286  -21.9842 C   0  0  0  0  0  0  0  0  0  0  0  0
   -5.0821    6.4763  -22.6643 C   0  0  0  0  0  0  0  0  0  0  0  0
   -4.9434    5.5581  -23.8422 C   0  0  0  0  0  0  0  0  0  0  0  0
   -6.1332    4.7920  -24.3402 C   0  0  0  0  0  0  0  0  0  0  0  0
 29 30  1  0  0  0
 30 31  1  0  0  0
 31 32  2  0  0  0
 31 28  1  0  0  0
 28  1  1  0  0  0
  1  2  1  0  0  0
  3  2  1  0  0  0
  3  4  1  0  0  0
  4  5  2  0  0  0
  4  6  1  0  0  0
  6 18  1  0  0  0
 18 19  2  0  0  0
 19 20  1  0  0  0
 20 21  2  0  0  0
 21 22  1  0  0  0
 22 23  2  0  0  0
 23 24  1  0  0  0
 24 25  2  0  0  0
 25 26  1  0  0  0
 26 27  2  0  0  0
  6  7  1  0  0  0
  7  8  1  0  0  0
  8 34  1  0  0  0
 34 35  1  0  0  0
 35 36  2  0  0  0
 36 37  1  0  0  0
 37 38  2  0  0  0
 38 39  1  0  0  0
 39 40  2  0  0  0
  3  9  1  0  0  0
  9 10  2  0  0  0
 10 11  1  0  0  0
 11 12  1  0  0  0
 11 13  2  0  0  0
 13 14  1  0  0  0
 14 15  2  0  0  0
 15 16  1  0  0  0
 16 17  2  0  0  0
 16  1  1  0  0  0
  8  3  1  0  0  0
 40 35  1  0  0  0
 15  9  1  0  0  0
 27 18  1  0  0  0
 27 22  1  0  0  0
 30 33  1  0  0  0
M  END
> <minimizedAffinity>
-8.37789

> <CNNscore>
0.3755391538

> <CNNaffinity>
6.7391333580

> <CNN_VS>
2.5308084488

> <CNNaffinity_variance>
0.1124453098

$$$$



 40 45  0  0  0  0  0  0  0  0999 V2000
   -6.9575   -1.4962  -22.1870 N   0  0  0  0  0  0  0  0  0  0  0  0
   -5.9111   -0.5957  -22.7737 C   0  0  0  0  0  0  0  0  0  0  0  0
   -4.8274   -0.0365  -21.9003 C   0  0  0  0  0  0  0  0  0  0  0  0
   -3.6888    0.5945  -21.1552 C   0  0  0  0  0  0  0  0  0  0  0  0
   -3.2248    0.6453  -20.0334 O   0  0  0  0  0  0  0  0  0  0  0  0
   -2.8936    1.4120  -22.1296 N   0  0  0  0  0  0  0  0  0  0  0  0
   -3.5408    1.2862  -23.4769 C   0  0  0  0  0  0  0  0  0  0  0  0
   -4.7360    0.3910  -23.3352 C   0  0  0  0  0  0  0  0  0  0  0  0
   -4.7901   -0.3778  -20.4401 C   0  0  0  0  0  0  0  0  0  0  0  0
   -3.7064    0.1813  -19.5667 C   0  0  0  0  0  0  0  0  0  0  0  0
   -3.6691   -0.1600  -18.1065 C   0  0  0  0  0  0  0  0  0  0  0  0
   -2.5854    0.3992  -17.2330 Cl  0  0  0  0  0  0  0  0  0  0  0  0
   -4.7155   -1.0604  -17.5198 C   0  0  0  0  0  0  0  0  0  0  0  0
   -5.7992   -1.6196  -18.3932 C   0  0  0  0  0  0  0  0  0  0  0  0
   -5.8365   -1.2783  -19.8534 C   0  0  0  0  0  0  0  0  0  0  0  0
   -6.9202   -1.8374  -20.7269 C   0  0  0  0  0  0  0  0  0  0  0  0
   -7.9666   -2.7379  -20.1401 O   0  0  0  0  0  0  0  0  0  0  0  0
   -1.6666    2.2144  -21.8123 C   0  0  0  0  0  0  0  0  0  0  0  0
   -1.3286    2.5360  -20.3866 C   0  0  0  0  0  0  0  0  0  0  0  0
   -0.1017    3.3384  -20.0693 N   0  0  0  0  0  0  0  0  0  0  0  0
    0.7873    3.8192  -21.1777 C   0  0  0  0  0  0  0  0  0  0  0  0
    0.4494    3.4977  -22.6033 C   0  0  0  0  0  0  0  0  0  0  0  0
    1.3384    3.9786  -23.7117 C   0  0  0  0  0  0  0  0  0  0  0  0
    1.0004    3.6570  -25.1373 C   0  0  0  0  0  0  0  0  0  0  0  0
   -0.2266    2.8546  -25.4546 C   0  0  0  0  0  0  0  0  0  0  0  0
   -1.1156    2.3737  -24.3462 C   0  0  0  0  0  0  0  0  0  0  0  0
   -0.7776    2.6953  -22.9206 C   0  0  0  0  0  0  0  0  0  0  0  0
   -8.0412   -2.0553  -23.0605 C   0  0  0  0  0  0  0  0  0  0  0  0
   -7.5906   -5.4346  -25.0922 C   0  0  0  0  0  0  0  0  0  0  0  0
   -7.9353   -4.4800  -23.9876 N   0  0  0  0  0  0  0  0  0  0  0  0
   -7.6965   -3.0099  -24.1651 C   0  0  0  0  0  0  0  0  0  0  0  0
   -7.1130   -2.4941  -25.4471 O   0  0  0  0  0  0  0  0  0  0  0  0
   -8.3183   -4.8185  -23.1462 H   0  0  0  0  0  0  0  0  0  0  0  0
   -5.6748   -0.0069  -24.4353 C   0  0  0  0  0  0  0  0  0  0  0  0
   -5.2734    0.1804  -25.8683 C   0  0  0  0  0  0  0  0  0  0  0  0
   -3.8219    0.2775  -26.2341 C   0  0  0  0  0  0  0  0  0  0  0  0
   -3.4206    0.4648  -27.6672 C   0  0  0  0  0  0  0  0  0  0  0  0
   -4.4707    0.5549  -28.7345 C   0  0  0  0  0  0  0  0  0  0  0  0
   -5.9221    0.4578  -28.3688 C   0  0  0  0  0  0  0  0  0  0  0  0
   -6.3236    0.2706  -26.9357 C   0  0  0  0  0  0  0  0  0  0  0  0
 29 30  1  0  0  0
 30 31  1  0  0  0
 31 32  2  0  0  0
 31 28  1  0  0  0
 28  1  1  0  0  0
  1  2  1  0  0  0
  3  2  1  0  0  0
  3  4  1  0  0  0
  4  5  2  0  0  0
  4  6  1  0  0  0
  6 18  1  0  0  0
 18 19  2  0  0  0
 19 20  1  0  0  0
 20 21  2  0  0  0
 21 22  1  0  0  0
 22 23  2  0  0  0
 23 24  1  0  0  0
 24 25  2  0  0  0
 25 26  1  0  0  0
 26 27  2  0  0  0
  6  7  1  0  0  0
  7  8  1  0  0  0
  8 34  1  0  0  0
 34 35  1  0  0  0
 35 36  2  0  0  0
 36 37  1  0  0  0
 37 38  2  0  0  0
 38 39  1  0  0  0
 39 40  2  0  0  0
  3  9  1  0  0  0
  9 10  2  0  0  0
 10 11  1  0  0  0
 11 12  1  0  0  0
 11 13  2  0  0  0
 13 14  1  0  0  0
 14 15  2  0  0  0
 15 16  1  0  0  0
 16 17  2  0  0  0
 16  1  1  0  0  0
  8  3  1  0  0  0
 40 35  1  0  0  0
 15  9  1  0  0  0
 27 18  1  0  0  0
 27 22  1  0  0  0
 30 33  1  0  0  0
M  END
> <minimizedAffinity>
12.53471

> <CNNscore>
0.3607881665

> <CNNaffinity>
5.8257966042

> <CNN_VS>
2.1018784046

> <CNNaffinity_variance>
0.3917401433

$$$$



 40 45  0  0  0  0  0  0  0  0999 V2000
   -8.5823   -0.8969  -21.8032 N   0  0  0  0  0  0  0  0  0  0  0  0
   -8.5371   -0.0911  -23.0676 C   0  0  0  0  0  0  0  0  0  0  0  0
   -7.2658    0.5920  -23.4765 C   0  0  0  0  0  0  0  0  0  0  0  0
   -6.0728    1.3273  -24.0111 C   0  0  0  0  0  0  0  0  0  0  0  0
   -4.9102    1.5432  -23.7314 O   0  0  0  0  0  0  0  0  0  0  0  0
   -6.4752    1.9937  -25.2933 N   0  0  0  0  0  0  0  0  0  0  0  0
   -7.9171    1.6702  -25.5511 C   0  0  0  0  0  0  0  0  0  0  0  0
   -8.4056    0.8039  -24.4283 C   0  0  0  0  0  0  0  0  0  0  0  0
   -6.0397    0.4692  -22.6210 C   0  0  0  0  0  0  0  0  0  0  0  0
   -4.7685    1.1523  -23.0300 C   0  0  0  0  0  0  0  0  0  0  0  0
   -3.5425    1.0295  -22.1745 C   0  0  0  0  0  0  0  0  0  0  0  0
   -2.2711    1.7126  -22.5834 Cl  0  0  0  0  0  0  0  0  0  0  0  0
   -3.5877    0.2237  -20.9102 C   0  0  0  0  0  0  0  0  0  0  0  0
   -4.8590   -0.4593  -20.5012 C   0  0  0  0  0  0  0  0  0  0  0  0
   -6.0850   -0.3366  -21.3567 C   0  0  0  0  0  0  0  0  0  0  0  0
   -7.3564   -1.0197  -20.9478 C   0  0  0  0  0  0  0  0  0  0  0  0
   -7.4016   -1.8255  -19.6834 O   0  0  0  0  0  0  0  0  0  0  0  0
   -5.5911    2.8358  -26.1646 C   0  0  0  0  0  0  0  0  0  0  0  0
   -5.3073    2.4137  -27.5758 C   0  0  0  0  0  0  0  0  0  0  0  0
   -4.4232    3.2558  -28.4471 N   0  0  0  0  0  0  0  0  0  0  0  0
   -3.8228    4.5199  -27.9073 C   0  0  0  0  0  0  0  0  0  0  0  0
   -4.1066    4.9420  -26.4961 C   0  0  0  0  0  0  0  0  0  0  0  0
   -3.5062    6.2063  -25.9563 C   0  0  0  0  0  0  0  0  0  0  0  0
   -3.7900    6.6283  -24.5452 C   0  0  0  0  0  0  0  0  0  0  0  0
   -4.6742    5.7862  -23.6738 C   0  0  0  0  0  0  0  0  0  0  0  0
   -5.2745    4.5221  -24.2136 C   0  0  0  0  0  0  0  0  0  0  0  0
   -4.9907    4.1000  -25.6248 C   0  0  0  0  0  0  0  0  0  0  0  0
   -9.8537   -1.5800  -21.3943 C   0  0  0  0  0  0  0  0  0  0  0  0
  -12.7534   -3.4679  -23.3379 C   0  0  0  0  0  0  0  0  0  0  0  0
  -12.0529   -2.5509  -22.3795 N   0  0  0  0  0  0  0  0  0  0  0  0
  -10.5542   -2.4970  -22.3527 C   0  0  0  0  0  0  0  0  0  0  0  0
   -9.7558   -3.3600  -23.2843 O   0  0  0  0  0  0  0  0  0  0  0  0
  -12.5769   -1.9845  -21.7681 H   0  0  0  0  0  0  0  0  0  0  0  0
   -9.7909    0.2472  -24.2828 C   0  0  0  0  0  0  0  0  0  0  0  0
  -10.9462    1.1685  -24.0254 C   0  0  0  0  0  0  0  0  0  0  0  0
  -10.7810    2.6481  -24.2083 C   0  0  0  0  0  0  0  0  0  0  0  0
  -11.9364    3.5693  -23.9509 C   0  0  0  0  0  0  0  0  0  0  0  0
  -13.2571    3.0110  -23.5106 C   0  0  0  0  0  0  0  0  0  0  0  0
  -13.4225    1.5314  -23.3277 C   0  0  0  0  0  0  0  0  0  0  0  0
  -12.2671    0.6101  -23.5851 C   0  0  0  0  0  0  0  0  0  0  0  0
 29 30  1  0  0  0
 30 31  1  0  0  0
 31 32  2  0  0  0
 31 28  1  0  0  0
 28  1  1  0  0  0
  1  2  1  0  0  0
  3  2  1  0  0  0
  3  4  1  0  0  0
  4  5  2  0  0  0
  4  6  1  0  0  0
  6 18  1  0  0  0
 18 19  2  0  0  0
 19 20  1  0  0  0
 20 21  2  0  0  0
 21 22  1  0  0  0
 22 23  2  0  0  0
 23 24  1  0  0  0
 24 25  2  0  0  0
 25 26  1  0  0  0
 26 27  2  0  0  0
  6  7  1  0  0  0
  7  8  1  0  0  0
  8 34  1  0  0  0
 34 35  1  0  0  0
 35 36  2  0  0  0
 36 37  1  0  0  0
 37 38  2  0  0  0
 38 39  1  0  0  0
 39 40  2  0  0  0
  3  9  1  0  0  0
  9 10  2  0  0  0
 10 11  1  0  0  0
 11 12  1  0  0  0
 11 13  2  0  0  0
 13 14  1  0  0  0
 14 15  2  0  0  0
 15 16  1  0  0  0
 16 17  2  0  0  0
 16  1  1  0  0  0
  8  3  1  0  0  0
 40 35  1  0  0  0
 15  9  1  0  0  0
 27 18  1  0  0  0
 27 22  1  0  0  0
 30 33  1  0  0  0
M  END
> <minimizedAffinity>
-4.26768

> <CNNscore>
0.3515002728

> <CNNaffinity>
6.3914403915

> <CNN_VS>
2.2465929985

> <CNNaffinity_variance>
0.3307806849

$$$$



 40 45  0  0  0  0  0  0  0  0999 V2000
   -7.1468   -0.8944  -21.5678 N   0  0  0  0  0  0  0  0  0  0  0  0
   -7.2047    0.4348  -22.2605 C   0  0  0  0  0  0  0  0  0  0  0  0
   -8.4535    0.8523  -22.9790 C   0  0  0  0  0  0  0  0  0  0  0  0
   -9.6270    1.4028  -23.7338 C   0  0  0  0  0  0  0  0  0  0  0  0
  -10.7619    1.0972  -24.0419 O   0  0  0  0  0  0  0  0  0  0  0  0
   -9.2469    2.7551  -24.2598 N   0  0  0  0  0  0  0  0  0  0  0  0
   -7.8384    3.0405  -23.8301 C   0  0  0  0  0  0  0  0  0  0  0  0
   -7.3480    1.8645  -23.0385 C   0  0  0  0  0  0  0  0  0  0  0  0
   -9.6444   -0.0594  -23.0048 C   0  0  0  0  0  0  0  0  0  0  0  0
  -10.8931    0.3581  -23.7233 C   0  0  0  0  0  0  0  0  0  0  0  0
  -12.0839   -0.5536  -23.7490 C   0  0  0  0  0  0  0  0  0  0  0  0
  -13.3328   -0.1361  -24.4676 Cl  0  0  0  0  0  0  0  0  0  0  0  0
  -12.0260   -1.8828  -23.0564 C   0  0  0  0  0  0  0  0  0  0  0  0
  -10.7773   -2.3003  -22.3379 C   0  0  0  0  0  0  0  0  0  0  0  0
   -9.5864   -1.3886  -22.3121 C   0  0  0  0  0  0  0  0  0  0  0  0
   -8.3376   -1.8061  -21.5936 C   0  0  0  0  0  0  0  0  0  0  0  0
   -8.2797   -3.1354  -20.9009 O   0  0  0  0  0  0  0  0  0  0  0  0
  -10.1217    3.6628  -25.0727 C   0  0  0  0  0  0  0  0  0  0  0  0
   -9.8031    3.9162  -26.5165 C   0  0  0  0  0  0  0  0  0  0  0  0
  -10.6779    4.8238  -27.3294 N   0  0  0  0  0  0  0  0  0  0  0  0
  -11.8713    5.4780  -26.6987 C   0  0  0  0  0  0  0  0  0  0  0  0
  -12.1898    5.2246  -25.2549 C   0  0  0  0  0  0  0  0  0  0  0  0
  -13.3833    5.8789  -24.6242 C   0  0  0  0  0  0  0  0  0  0  0  0
  -13.7017    5.6254  -23.1805 C   0  0  0  0  0  0  0  0  0  0  0  0
  -12.8269    4.7178  -22.3675 C   0  0  0  0  0  0  0  0  0  0  0  0
  -11.6336    4.0636  -22.9982 C   0  0  0  0  0  0  0  0  0  0  0  0
  -11.3150    4.3170  -24.4420 C   0  0  0  0  0  0  0  0  0  0  0  0
   -5.8980   -1.3119  -20.8493 C   0  0  0  0  0  0  0  0  0  0  0  0
   -5.3930   -5.1580  -21.6877 C   0  0  0  0  0  0  0  0  0  0  0  0
   -5.7125   -3.7016  -21.8517 N   0  0  0  0  0  0  0  0  0  0  0  0
   -5.5784   -2.7683  -20.6852 C   0  0  0  0  0  0  0  0  0  0  0  0
   -5.1246   -3.2913  -19.3545 O   0  0  0  0  0  0  0  0  0  0  0  0
   -6.0103   -3.3584  -22.7251 H   0  0  0  0  0  0  0  0  0  0  0  0
   -5.9905    1.7251  -22.4158 C   0  0  0  0  0  0  0  0  0  0  0  0
   -5.0572    2.8987  -22.3810 C   0  0  0  0  0  0  0  0  0  0  0  0
   -3.7543    2.7994  -21.6443 C   0  0  0  0  0  0  0  0  0  0  0  0
   -2.8210    3.9732  -21.6096 C   0  0  0  0  0  0  0  0  0  0  0  0
   -3.1906    5.2462  -22.3115 C   0  0  0  0  0  0  0  0  0  0  0  0
   -4.4934    5.3457  -23.0482 C   0  0  0  0  0  0  0  0  0  0  0  0
   -5.4268    4.1719  -23.0830 C   0  0  0  0  0  0  0  0  0  0  0  0
 29 30  1  0  0  0
 30 31  1  0  0  0
 31 32  2  0  0  0
 31 28  1  0  0  0
 28  1  1  0  0  0
  1  2  1  0  0  0
  3  2  1  0  0  0
  3  4  1  0  0  0
  4  5  2  0  0  0
  4  6  1  0  0  0
  6 18  1  0  0  0
 18 19  2  0  0  0
 19 20  1  0  0  0
 20 21  2  0  0  0
 21 22  1  0  0  0
 22 23  2  0  0  0
 23 24  1  0  0  0
 24 25  2  0  0  0
 25 26  1  0  0  0
 26 27  2  0  0  0
  6  7  1  0  0  0
  7  8  1  0  0  0
  8 34  1  0  0  0
 34 35  1  0  0  0
 35 36  2  0  0  0
 36 37  1  0  0  0
 37 38  2  0  0  0
 38 39  1  0  0  0
 39 40  2  0  0  0
  3  9  1  0  0  0
  9 10  2  0  0  0
 10 11  1  0  0  0
 11 12  1  0  0  0
 11 13  2  0  0  0
 13 14  1  0  0  0
 14 15  2  0  0  0
 15 16  1  0  0  0
 16 17  2  0  0  0
 16  1  1  0  0  0
  8  3  1  0  0  0
 40 35  1  0  0  0
 15  9  1  0  0  0
 27 18  1  0  0  0
 27 22  1  0  0  0
 30 33  1  0  0  0
M  END
> <minimizedAffinity>
-7.41226

> <CNNscore>
0.3436116874

> <CNNaffinity>
6.5561928749

> <CNN_VS>
2.2527844906

> <CNNaffinity_variance>
0.0887957066

$$$$



 40 45  0  0  0  0  0  0  0  0999 V2000
   -5.8807   -4.1603  -21.6750 N   0  0  0  0  0  0  0  0  0  0  0  0
   -6.2833   -3.6358  -23.0214 C   0  0  0  0  0  0  0  0  0  0  0  0
   -6.2654   -2.1598  -23.2874 C   0  0  0  0  0  0  0  0  0  0  0  0
   -6.2974   -0.7175  -23.6984 C   0  0  0  0  0  0  0  0  0  0  0  0
   -6.0702    0.3855  -23.2423 O   0  0  0  0  0  0  0  0  0  0  0  0
   -6.7584   -0.6519  -25.1242 N   0  0  0  0  0  0  0  0  0  0  0  0
   -7.0114   -2.0536  -25.5945 C   0  0  0  0  0  0  0  0  0  0  0  0
   -6.7068   -2.9855  -24.4593 C   0  0  0  0  0  0  0  0  0  0  0  0
   -5.8450   -1.2080  -22.2069 C   0  0  0  0  0  0  0  0  0  0  0  0
   -5.8272    0.2681  -22.4728 C   0  0  0  0  0  0  0  0  0  0  0  0
   -5.4068    1.2198  -21.3923 C   0  0  0  0  0  0  0  0  0  0  0  0
   -5.3889    2.6960  -21.6582 Cl  0  0  0  0  0  0  0  0  0  0  0  0
   -5.0042    0.6953  -20.0458 C   0  0  0  0  0  0  0  0  0  0  0  0
   -5.0221   -0.7808  -19.7799 C   0  0  0  0  0  0  0  0  0  0  0  0
   -5.4425   -1.7324  -20.8604 C   0  0  0  0  0  0  0  0  0  0  0  0
   -5.4603   -3.2086  -20.5945 C   0  0  0  0  0  0  0  0  0  0  0  0
   -5.0578   -3.7330  -19.2480 O   0  0  0  0  0  0  0  0  0  0  0  0
   -6.9353    0.5963  -25.9371 C   0  0  0  0  0  0  0  0  0  0  0  0
   -8.2676    1.2845  -25.9744 C   0  0  0  0  0  0  0  0  0  0  0  0
   -8.4446    2.5327  -26.7872 N   0  0  0  0  0  0  0  0  0  0  0  0
   -7.2892    3.0927  -27.5628 C   0  0  0  0  0  0  0  0  0  0  0  0
   -5.9569    2.4045  -27.5254 C   0  0  0  0  0  0  0  0  0  0  0  0
   -4.8015    2.9645  -28.3010 C   0  0  0  0  0  0  0  0  0  0  0  0
   -3.4692    2.2763  -28.2637 C   0  0  0  0  0  0  0  0  0  0  0  0
   -3.2923    1.0281  -27.4508 C   0  0  0  0  0  0  0  0  0  0  0  0
   -4.4476    0.4681  -26.6753 C   0  0  0  0  0  0  0  0  0  0  0  0
   -5.7800    1.1563  -26.7126 C   0  0  0  0  0  0  0  0  0  0  0  0
   -5.8986   -5.6365  -21.4091 C   0  0  0  0  0  0  0  0  0  0  0  0
   -3.4874   -7.3529  -24.0529 C   0  0  0  0  0  0  0  0  0  0  0  0
   -4.0074   -6.3983  -23.0193 N   0  0  0  0  0  0  0  0  0  0  0  0
   -5.3786   -6.5910  -22.4427 C   0  0  0  0  0  0  0  0  0  0  0  0
   -6.2300   -7.7384  -22.8998 O   0  0  0  0  0  0  0  0  0  0  0  0
   -3.4487   -5.6453  -22.7193 H   0  0  0  0  0  0  0  0  0  0  0  0
   -6.8230   -4.4806  -24.4905 C   0  0  0  0  0  0  0  0  0  0  0  0
   -7.9915   -5.1280  -25.1728 C   0  0  0  0  0  0  0  0  0  0  0  0
   -7.8027   -6.4097  -25.9289 C   0  0  0  0  0  0  0  0  0  0  0  0
   -8.9713   -7.0570  -26.6112 C   0  0  0  0  0  0  0  0  0  0  0  0
  -10.3285   -6.4227  -26.5373 C   0  0  0  0  0  0  0  0  0  0  0  0
  -10.5173   -5.1410  -25.7813 C   0  0  0  0  0  0  0  0  0  0  0  0
   -9.3488   -4.4936  -25.0990 C   0  0  0  0  0  0  0  0  0  0  0  0
 29 30  1  0  0  0
 30 31  1  0  0  0
 31 32  2  0  0  0
 31 28  1  0  0  0
 28  1  1  0  0  0
  1  2  1  0  0  0
  3  2  1  0  0  0
  3  4  1  0  0  0
  4  5  2  0  0  0
  4  6  1  0  0  0
  6 18  1  0  0  0
 18 19  2  0  0  0
 19 20  1  0  0  0
 20 21  2  0  0  0
 21 22  1  0  0  0
 22 23  2  0  0  0
 23 24  1  0  0  0
 24 25  2  0  0  0
 25 26  1  0  0  0
 26 27  2  0  0  0
  6  7  1  0  0  0
  7  8  1  0  0  0
  8 34  1  0  0  0
 34 35  1  0  0  0
 35 36  2  0  0  0
 36 37  1  0  0  0
 37 38  2  0  0  0
 38 39  1  0  0  0
 39 40  2  0  0  0
  3  9  1  0  0  0
  9 10  2  0  0  0
 10 11  1  0  0  0
 11 12  1  0  0  0
 11 13  2  0  0  0
 13 14  1  0  0  0
 14 15  2  0  0  0
 15 16  1  0  0  0
 16 17  2  0  0  0
 16  1  1  0  0  0
  8  3  1  0  0  0
 40 35  1  0  0  0
 15  9  1  0  0  0
 27 18  1  0  0  0
 27 22  1  0  0  0
 30 33  1  0  0  0
M  END
> <minimizedAffinity>
-7.47259

> <CNNscore>
0.3313143849

> <CNNaffinity>
6.5258607864

> <CNN_VS>
2.1621115208

> <CNNaffinity_variance>
0.0239933617

$$$$
