


 35 40  0  0  0  0  0  0  0  0999 V2000
   -9.5504   -2.4865  -23.6851 C   0  0  0  0  0  0  0  0  0  0  0  0
   -8.3028   -2.7140  -22.8840 C   0  0  0  0  0  0  0  0  0  0  0  0
   -8.0274   -1.5818  -21.9394 C   0  0  0  0  0  0  0  0  0  0  0  0
   -6.7684   -1.9002  -21.1888 N   0  0  0  0  0  0  0  0  0  0  0  0
   -6.2657   -3.2292  -21.6695 C   0  0  0  0  0  0  0  0  0  0  0  0
   -5.0313   -3.9319  -21.1872 O   0  0  0  0  0  0  0  0  0  0  0  0
   -7.2140   -3.7321  -22.7172 C   0  0  0  0  0  0  0  0  0  0  0  0
   -6.0639   -4.6549  -22.4419 C   0  0  0  0  0  0  0  0  0  0  0  0
   -5.9444   -5.9488  -23.1912 N   0  0  0  0  0  0  0  0  0  0  0  0
   -6.9750   -6.3200  -24.2160 C   0  0  0  0  0  0  0  0  0  0  0  0
   -6.8555   -7.6139  -24.9653 O   0  0  0  0  0  0  0  0  0  0  0  0
   -8.1251   -5.3972  -24.4914 C   0  0  0  0  0  0  0  0  0  0  0  0
   -9.1557   -5.7684  -25.5161 C   0  0  0  0  0  0  0  0  0  0  0  0
  -10.3058   -4.8457  -25.7914 C   0  0  0  0  0  0  0  0  0  0  0  0
  -10.4253   -3.5518  -25.0421 C   0  0  0  0  0  0  0  0  0  0  0  0
  -11.5754   -2.6290  -25.3175 F   0  0  0  0  0  0  0  0  0  0  0  0
   -9.3947   -3.1806  -24.0174 C   0  0  0  0  0  0  0  0  0  0  0  0
   -8.2446   -4.1033  -23.7420 C   0  0  0  0  0  0  0  0  0  0  0  0
   -6.1250   -1.0406  -20.1413 C   0  0  0  0  0  0  0  0  0  0  0  0
   -6.6594   -1.0397  -18.7398 C   0  0  0  0  0  0  0  0  0  0  0  0
   -6.0160   -0.1801  -17.6924 N   0  0  0  0  0  0  0  0  0  0  0  0
   -4.8382    0.6785  -18.0465 C   0  0  0  0  0  0  0  0  0  0  0  0
   -4.3037    0.6776  -19.4481 C   0  0  0  0  0  0  0  0  0  0  0  0
   -3.1258    1.5362  -19.8022 C   0  0  0  0  0  0  0  0  0  0  0  0
   -2.5914    1.5352  -21.2038 C   0  0  0  0  0  0  0  0  0  0  0  0
   -3.2348    0.6756  -22.2511 C   0  0  0  0  0  0  0  0  0  0  0  0
   -4.4127   -0.1830  -21.8970 C   0  0  0  0  0  0  0  0  0  0  0  0
   -4.9471   -0.1820  -20.4955 C   0  0  0  0  0  0  0  0  0  0  0  0
   -4.7943   -6.8715  -22.9158 C   0  0  0  0  0  0  0  0  0  0  0  0
   -3.5601   -6.8062  -23.7659 C   0  0  0  0  0  0  0  0  0  0  0  0
   -2.2373   -7.2326  -23.2016 N   0  0  0  0  0  0  0  0  0  0  0  0
   -1.0032   -7.1673  -24.0517 C   0  0  0  0  0  0  0  0  0  0  0  0
   -1.0919   -6.6755  -25.4661 C   0  0  0  0  0  0  0  0  0  0  0  0
   -2.4147   -6.2491  -26.0303 C   0  0  0  0  0  0  0  0  0  0  0  0
   -3.6488   -6.3144  -25.1802 N   0  0  0  0  0  0  0  0  0  0  0  0
  2  1  1  0  0  0
  2  3  1  0  0  0
  3  4  1  0  0  0
  4 19  1  0  0  0
 19 20  2  0  0  0
 20 21  1  0  0  0
 21 22  2  0  0  0
 22 23  1  0  0  0
 23 24  2  0  0  0
 24 25  1  0  0  0
 25 26  2  0  0  0
 26 27  1  0  0  0
 27 28  2  0  0  0
  4  5  1  0  0  0
  5  6  2  0  0  0
  5  7  1  0  0  0
  7  8  1  0  0  0
  8  9  1  0  0  0
  9 29  1  0  0  0
 29 30  1  0  0  0
 30 31  2  0  0  0
 31 32  1  0  0  0
 32 33  2  0  0  0
 33 34  1  0  0  0
 34 35  2  0  0  0
  9 10  1  0  0  0
 10 11  2  0  0  0
 10 12  1  0  0  0
 12 13  2  0  0  0
 13 14  1  0  0  0
 14 15  2  0  0  0
 15 16  1  0  0  0
 15 17  1  0  0  0
 17 18  2  0  0  0
  7  2  1  0  0  0
 35 30  1  0  0  0
 18 12  1  0  0  0
 28 19  1  0  0  0
 18  7  1  0  0  0
 28 23  1  0  0  0
M  END
> <minimizedAffinity>
-8.47597

> <CNNscore>
0.5172409415

> <CNNaffinity>
6.5968732834

> <CNN_VS>
3.4121730328

> <CNNaffinity_variance>
0.1067348719

$$$$



 35 40  0  0  0  0  0  0  0  0999 V2000
   -7.1254    0.7161  -21.4389 C   0  0  0  0  0  0  0  0  0  0  0  0
   -8.3837    0.5106  -22.2293 C   0  0  0  0  0  0  0  0  0  0  0  0
   -9.1446    1.7896  -22.4169 C   0  0  0  0  0  0  0  0  0  0  0  0
  -10.3780    1.4826  -23.2135 N   0  0  0  0  0  0  0  0  0  0  0  0
  -10.3793    0.0138  -23.5181 C   0  0  0  0  0  0  0  0  0  0  0  0
  -11.4290   -0.7245  -24.2947 O   0  0  0  0  0  0  0  0  0  0  0  0
   -9.1468   -0.5869  -22.9099 C   0  0  0  0  0  0  0  0  0  0  0  0
  -10.0152   -1.5751  -23.6305 C   0  0  0  0  0  0  0  0  0  0  0  0
   -9.6159   -3.0196  -23.6920 N   0  0  0  0  0  0  0  0  0  0  0  0
   -8.3481   -3.4760  -23.0330 C   0  0  0  0  0  0  0  0  0  0  0  0
   -7.9488   -4.9206  -23.0945 O   0  0  0  0  0  0  0  0  0  0  0  0
   -7.4796   -2.4878  -22.3123 C   0  0  0  0  0  0  0  0  0  0  0  0
   -6.2118   -2.9442  -21.6533 C   0  0  0  0  0  0  0  0  0  0  0  0
   -5.3434   -1.9561  -20.9327 C   0  0  0  0  0  0  0  0  0  0  0  0
   -5.7427   -0.5115  -20.8712 C   0  0  0  0  0  0  0  0  0  0  0  0
   -4.8742    0.4767  -20.1505 F   0  0  0  0  0  0  0  0  0  0  0  0
   -7.0105   -0.0551  -21.5302 C   0  0  0  0  0  0  0  0  0  0  0  0
   -7.8789   -1.0433  -22.2508 C   0  0  0  0  0  0  0  0  0  0  0  0
  -11.4261    2.4707  -23.6319 C   0  0  0  0  0  0  0  0  0  0  0  0
  -12.7188    2.5581  -22.8762 C   0  0  0  0  0  0  0  0  0  0  0  0
  -13.7668    3.5463  -23.2947 N   0  0  0  0  0  0  0  0  0  0  0  0
  -13.5221    4.4471  -24.4688 C   0  0  0  0  0  0  0  0  0  0  0  0
  -12.2293    4.3597  -25.2245 C   0  0  0  0  0  0  0  0  0  0  0  0
  -11.9845    5.2606  -26.3987 C   0  0  0  0  0  0  0  0  0  0  0  0
  -10.6917    5.1732  -27.1543 C   0  0  0  0  0  0  0  0  0  0  0  0
   -9.6437    4.1850  -26.7359 C   0  0  0  0  0  0  0  0  0  0  0  0
   -9.8885    3.2842  -25.5617 C   0  0  0  0  0  0  0  0  0  0  0  0
  -11.1812    3.3715  -24.8061 C   0  0  0  0  0  0  0  0  0  0  0  0
  -10.4844   -4.0078  -24.4127 C   0  0  0  0  0  0  0  0  0  0  0  0
   -9.9690   -4.7079  -25.6350 C   0  0  0  0  0  0  0  0  0  0  0  0
  -10.6617   -5.9374  -26.1433 N   0  0  0  0  0  0  0  0  0  0  0  0
  -10.1463   -6.6375  -27.3656 C   0  0  0  0  0  0  0  0  0  0  0  0
   -8.9380   -6.1081  -28.0798 C   0  0  0  0  0  0  0  0  0  0  0  0
   -8.2453   -4.8786  -27.5715 C   0  0  0  0  0  0  0  0  0  0  0  0
   -8.7608   -4.1785  -26.3491 N   0  0  0  0  0  0  0  0  0  0  0  0
  2  1  1  0  0  0
  2  3  1  0  0  0
  3  4  1  0  0  0
  4 19  1  0  0  0
 19 20  2  0  0  0
 20 21  1  0  0  0
 21 22  2  0  0  0
 22 23  1  0  0  0
 23 24  2  0  0  0
 24 25  1  0  0  0
 25 26  2  0  0  0
 26 27  1  0  0  0
 27 28  2  0  0  0
  4  5  1  0  0  0
  5  6  2  0  0  0
  5  7  1  0  0  0
  7  8  1  0  0  0
  8  9  1  0  0  0
  9 29  1  0  0  0
 29 30  1  0  0  0
 30 31  2  0  0  0
 31 32  1  0  0  0
 32 33  2  0  0  0
 33 34  1  0  0  0
 34 35  2  0  0  0
  9 10  1  0  0  0
 10 11  2  0  0  0
 10 12  1  0  0  0
 12 13  2  0  0  0
 13 14  1  0  0  0
 14 15  2  0  0  0
 15 16  1  0  0  0
 15 17  1  0  0  0
 17 18  2  0  0  0
  7  2  1  0  0  0
 35 30  1  0  0  0
 18 12  1  0  0  0
 28 19  1  0  0  0
 18  7  1  0  0  0
 28 23  1  0  0  0
M  END
> <minimizedAffinity>
-8.36476

> <CNNscore>
0.4942821562

> <CNNaffinity>
6.3853950500

> <CNN_VS>
3.1561868191

> <CNNaffinity_variance>
0.1246604323

$$$$



 35 40  0  0  0  0  0  0  0  0999 V2000
  -11.5874   -2.9936  -23.2287 C   0  0  0  0  0  0  0  0  0  0  0  0
  -10.2635   -2.5377  -23.7667 C   0  0  0  0  0  0  0  0  0  0  0  0
   -9.3124   -3.6811  -23.9618 C   0  0  0  0  0  0  0  0  0  0  0  0
   -8.0260   -3.1275  -24.4990 N   0  0  0  0  0  0  0  0  0  0  0  0
   -8.1820   -1.6419  -24.6359 C   0  0  0  0  0  0  0  0  0  0  0  0
   -7.1384   -0.6883  -25.1373 O   0  0  0  0  0  0  0  0  0  0  0  0
   -9.5649   -1.2774  -24.1833 C   0  0  0  0  0  0  0  0  0  0  0  0
   -8.7419   -0.1069  -24.6332 C   0  0  0  0  0  0  0  0  0  0  0  0
   -9.3239    1.2753  -24.6026 N   0  0  0  0  0  0  0  0  0  0  0  0
  -10.7290    1.4869  -24.1221 C   0  0  0  0  0  0  0  0  0  0  0  0
  -11.3111    2.8690  -24.0915 O   0  0  0  0  0  0  0  0  0  0  0  0
  -11.5521    0.3163  -23.6722 C   0  0  0  0  0  0  0  0  0  0  0  0
  -12.9572    0.5279  -23.1917 C   0  0  0  0  0  0  0  0  0  0  0  0
  -13.7802   -0.6426  -22.7418 C   0  0  0  0  0  0  0  0  0  0  0  0
  -13.1982   -2.0248  -22.7724 C   0  0  0  0  0  0  0  0  0  0  0  0
  -14.0213   -3.1953  -22.3225 F   0  0  0  0  0  0  0  0  0  0  0  0
  -11.7931   -2.2364  -23.2529 C   0  0  0  0  0  0  0  0  0  0  0  0
  -10.9701   -1.0658  -23.7028 C   0  0  0  0  0  0  0  0  0  0  0  0
   -6.7989   -3.9202  -24.8395 C   0  0  0  0  0  0  0  0  0  0  0  0
   -5.9093   -3.4793  -25.9638 C   0  0  0  0  0  0  0  0  0  0  0  0
   -4.6822   -4.2720  -26.3043 N   0  0  0  0  0  0  0  0  0  0  0  0
   -4.3449   -5.5056  -25.5204 C   0  0  0  0  0  0  0  0  0  0  0  0
   -5.2346   -5.9465  -24.3961 C   0  0  0  0  0  0  0  0  0  0  0  0
   -4.8971   -7.1801  -23.6122 C   0  0  0  0  0  0  0  0  0  0  0  0
   -5.7869   -7.6209  -22.4879 C   0  0  0  0  0  0  0  0  0  0  0  0
   -7.0139   -6.8282  -22.1475 C   0  0  0  0  0  0  0  0  0  0  0  0
   -7.3512   -5.5946  -22.9313 C   0  0  0  0  0  0  0  0  0  0  0  0
   -6.4616   -5.1538  -24.0556 C   0  0  0  0  0  0  0  0  0  0  0  0
   -8.5008    2.4458  -25.0526 C   0  0  0  0  0  0  0  0  0  0  0  0
   -8.0159    3.4511  -24.0505 C   0  0  0  0  0  0  0  0  0  0  0  0
   -8.6055    4.8302  -24.0261 N   0  0  0  0  0  0  0  0  0  0  0  0
   -8.1206    5.8355  -23.0240 C   0  0  0  0  0  0  0  0  0  0  0  0
   -7.0461    5.4618  -22.0463 C   0  0  0  0  0  0  0  0  0  0  0  0
   -6.4566    4.0827  -22.0707 C   0  0  0  0  0  0  0  0  0  0  0  0
   -6.9415    3.0774  -23.0728 N   0  0  0  0  0  0  0  0  0  0  0  0
  2  1  1  0  0  0
  2  3  1  0  0  0
  3  4  1  0  0  0
  4 19  1  0  0  0
 19 20  2  0  0  0
 20 21  1  0  0  0
 21 22  2  0  0  0
 22 23  1  0  0  0
 23 24  2  0  0  0
 24 25  1  0  0  0
 25 26  2  0  0  0
 26 27  1  0  0  0
 27 28  2  0  0  0
  4  5  1  0  0  0
  5  6  2  0  0  0
  5  7  1  0  0  0
  7  8  1  0  0  0
  8  9  1  0  0  0
  9 29  1  0  0  0
 29 30  1  0  0  0
 30 31  2  0  0  0
 31 32  1  0  0  0
 32 33  2  0  0  0
 33 34  1  0  0  0
 34 35  2  0  0  0
  9 10  1  0  0  0
 10 11  2  0  0  0
 10 12  1  0  0  0
 12 13  2  0  0  0
 13 14  1  0  0  0
 14 15  2  0  0  0
 15 16  1  0  0  0
 15 17  1  0  0  0
 17 18  2  0  0  0
  7  2  1  0  0  0
 35 30  1  0  0  0
 18 12  1  0  0  0
 28 19  1  0  0  0
 18  7  1  0  0  0
 28 23  1  0  0  0
M  END
> <minimizedAffinity>
-7.91381

> <CNNscore>
0.3691173196

> <CNNaffinity>
6.5996599197

> <CNN_VS>
2.4360487461

> <CNNaffinity_variance>
0.1027478129

$$$$



 35 40  0  0  0  0  0  0  0  0999 V2000
   -5.7897   -5.3663  -23.4177 C   0  0  0  0  0  0  0  0  0  0  0  0
   -6.4425   -4.1787  -22.7747 C   0  0  0  0  0  0  0  0  0  0  0  0
   -5.5475   -3.5239  -21.7646 C   0  0  0  0  0  0  0  0  0  0  0  0
   -6.2845   -2.3550  -21.1811 N   0  0  0  0  0  0  0  0  0  0  0  0
   -7.6349   -2.2874  -21.8305 C   0  0  0  0  0  0  0  0  0  0  0  0
   -8.7006   -1.2711  -21.5450 O   0  0  0  0  0  0  0  0  0  0  0  0
   -7.7326   -3.4145  -22.8154 C   0  0  0  0  0  0  0  0  0  0  0  0
   -8.9611   -2.5566  -22.7462 C   0  0  0  0  0  0  0  0  0  0  0  0
  -10.1416   -2.8653  -23.6186 N   0  0  0  0  0  0  0  0  0  0  0  0
  -10.0936   -4.0319  -24.5602 C   0  0  0  0  0  0  0  0  0  0  0  0
  -11.2742   -4.3407  -25.4326 O   0  0  0  0  0  0  0  0  0  0  0  0
   -8.8651   -4.8899  -24.6294 C   0  0  0  0  0  0  0  0  0  0  0  0
   -8.8172   -6.0566  -25.5710 C   0  0  0  0  0  0  0  0  0  0  0  0
   -7.5888   -6.9145  -25.6401 C   0  0  0  0  0  0  0  0  0  0  0  0
   -6.4083   -6.6058  -24.7677 C   0  0  0  0  0  0  0  0  0  0  0  0
   -5.1798   -7.4638  -24.8369 F   0  0  0  0  0  0  0  0  0  0  0  0
   -6.4562   -5.4392  -23.8261 C   0  0  0  0  0  0  0  0  0  0  0  0
   -7.6846   -4.5812  -23.7570 C   0  0  0  0  0  0  0  0  0  0  0  0
   -5.7626   -1.4182  -20.1323 C   0  0  0  0  0  0  0  0  0  0  0  0
   -6.2102   -1.5625  -18.7080 C   0  0  0  0  0  0  0  0  0  0  0  0
   -5.6884   -0.6257  -17.6592 N   0  0  0  0  0  0  0  0  0  0  0  0
   -4.7189    0.4555  -18.0348 C   0  0  0  0  0  0  0  0  0  0  0  0
   -4.2713    0.5999  -19.4591 C   0  0  0  0  0  0  0  0  0  0  0  0
   -3.3017    1.6812  -19.8347 C   0  0  0  0  0  0  0  0  0  0  0  0
   -2.8542    1.8255  -21.2591 C   0  0  0  0  0  0  0  0  0  0  0  0
   -3.3760    0.8886  -22.3078 C   0  0  0  0  0  0  0  0  0  0  0  0
   -4.3455   -0.1926  -21.9322 C   0  0  0  0  0  0  0  0  0  0  0  0
   -4.7931   -0.3369  -20.5079 C   0  0  0  0  0  0  0  0  0  0  0  0
  -11.3701   -2.0073  -23.5494 C   0  0  0  0  0  0  0  0  0  0  0  0
  -11.2549   -0.5192  -23.6983 C   0  0  0  0  0  0  0  0  0  0  0  0
  -10.0575    0.0761  -24.3779 N   0  0  0  0  0  0  0  0  0  0  0  0
   -9.9424    1.5643  -24.5268 C   0  0  0  0  0  0  0  0  0  0  0  0
  -11.0247    2.4571  -23.9961 C   0  0  0  0  0  0  0  0  0  0  0  0
  -12.2220    1.8618  -23.3165 C   0  0  0  0  0  0  0  0  0  0  0  0
  -12.3372    0.3736  -23.1676 N   0  0  0  0  0  0  0  0  0  0  0  0
  2  1  1  0  0  0
  2  3  1  0  0  0
  3  4  1  0  0  0
  4 19  1  0  0  0
 19 20  2  0  0  0
 20 21  1  0  0  0
 21 22  2  0  0  0
 22 23  1  0  0  0
 23 24  2  0  0  0
 24 25  1  0  0  0
 25 26  2  0  0  0
 26 27  1  0  0  0
 27 28  2  0  0  0
  4  5  1  0  0  0
  5  6  2  0  0  0
  5  7  1  0  0  0
  7  8  1  0  0  0
  8  9  1  0  0  0
  9 29  1  0  0  0
 29 30  1  0  0  0
 30 31  2  0  0  0
 31 32  1  0  0  0
 32 33  2  0  0  0
 33 34  1  0  0  0
 34 35  2  0  0  0
  9 10  1  0  0  0
 10 11  2  0  0  0
 10 12  1  0  0  0
 12 13  2  0  0  0
 13 14  1  0  0  0
 14 15  2  0  0  0
 15 16  1  0  0  0
 15 17  1  0  0  0
 17 18  2  0  0  0
  7  2  1  0  0  0
 35 30  1  0  0  0
 18 12  1  0  0  0
 28 19  1  0  0  0
 18  7  1  0  0  0
 28 23  1  0  0  0
M  END
> <minimizedAffinity>
-9.17489

> <CNNscore>
0.3293260634

> <CNNaffinity>
6.2405595779

> <CNN_VS>
2.0551788807

> <CNNaffinity_variance>
0.1463261545

$$$$



 35 40  0  0  0  0  0  0  0  0999 V2000
   -7.2319    0.2119  -21.1101 C   0  0  0  0  0  0  0  0  0  0  0  0
   -8.4072    0.0333  -22.0249 C   0  0  0  0  0  0  0  0  0  0  0  0
   -9.2056    1.2953  -22.1668 C   0  0  0  0  0  0  0  0  0  0  0  0
  -10.3511    1.0173  -23.0945 N   0  0  0  0  0  0  0  0  0  0  0  0
  -10.2606   -0.4165  -23.5259 C   0  0  0  0  0  0  0  0  0  0  0  0
  -11.2056   -1.1188  -24.4553 O   0  0  0  0  0  0  0  0  0  0  0  0
   -9.0592   -1.0246  -22.8650 C   0  0  0  0  0  0  0  0  0  0  0  0
   -9.8176   -1.9740  -23.7445 C   0  0  0  0  0  0  0  0  0  0  0  0
   -9.3502   -3.3912  -23.8968 N   0  0  0  0  0  0  0  0  0  0  0  0
   -8.1246   -3.8590  -23.1695 C   0  0  0  0  0  0  0  0  0  0  0  0
   -7.6573   -5.2762  -23.3218 O   0  0  0  0  0  0  0  0  0  0  0  0
   -7.3662   -2.9096  -22.2899 C   0  0  0  0  0  0  0  0  0  0  0  0
   -6.1406   -3.3774  -21.5627 C   0  0  0  0  0  0  0  0  0  0  0  0
   -5.3823   -2.4281  -20.6832 C   0  0  0  0  0  0  0  0  0  0  0  0
   -5.8496   -1.0109  -20.5309 C   0  0  0  0  0  0  0  0  0  0  0  0
   -5.0912   -0.0615  -19.6513 F   0  0  0  0  0  0  0  0  0  0  0  0
   -7.0752   -0.5430  -21.2581 C   0  0  0  0  0  0  0  0  0  0  0  0
   -7.8335   -1.4924  -22.1376 C   0  0  0  0  0  0  0  0  0  0  0  0
  -11.4025    2.0003  -23.5166 C   0  0  0  0  0  0  0  0  0  0  0  0
  -12.7933    1.8938  -22.9653 C   0  0  0  0  0  0  0  0  0  0  0  0
  -13.8447    2.8769  -23.3874 N   0  0  0  0  0  0  0  0  0  0  0  0
  -13.5051    3.9665  -24.3608 C   0  0  0  0  0  0  0  0  0  0  0  0
  -12.1141    4.0730  -24.9120 C   0  0  0  0  0  0  0  0  0  0  0  0
  -11.7745    5.1627  -25.8855 C   0  0  0  0  0  0  0  0  0  0  0  0
  -10.3835    5.2691  -26.4366 C   0  0  0  0  0  0  0  0  0  0  0  0
   -9.3322    4.2860  -26.0145 C   0  0  0  0  0  0  0  0  0  0  0  0
   -9.6718    3.1964  -25.0412 C   0  0  0  0  0  0  0  0  0  0  0  0
  -11.0627    3.0899  -24.4899 C   0  0  0  0  0  0  0  0  0  0  0  0
  -10.1086   -4.3405  -24.7764 C   0  0  0  0  0  0  0  0  0  0  0  0
   -9.4210   -5.0031  -25.9331 C   0  0  0  0  0  0  0  0  0  0  0  0
   -8.1146   -4.4653  -26.4371 N   0  0  0  0  0  0  0  0  0  0  0  0
   -7.4270   -5.1279  -27.5939 C   0  0  0  0  0  0  0  0  0  0  0  0
   -8.0458   -6.3283  -28.2467 C   0  0  0  0  0  0  0  0  0  0  0  0
   -9.3523   -6.8660  -27.7428 C   0  0  0  0  0  0  0  0  0  0  0  0
  -10.0399   -6.2034  -26.5859 N   0  0  0  0  0  0  0  0  0  0  0  0
  2  1  1  0  0  0
  2  3  1  0  0  0
  3  4  1  0  0  0
  4 19  1  0  0  0
 19 20  2  0  0  0
 20 21  1  0  0  0
 21 22  2  0  0  0
 22 23  1  0  0  0
 23 24  2  0  0  0
 24 25  1  0  0  0
 25 26  2  0  0  0
 26 27  1  0  0  0
 27 28  2  0  0  0
  4  5  1  0  0  0
  5  6  2  0  0  0
  5  7  1  0  0  0
  7  8  1  0  0  0
  8  9  1  0  0  0
  9 29  1  0  0  0
 29 30  1  0  0  0
 30 31  2  0  0  0
 31 32  1  0  0  0
 32 33  2  0  0  0
 33 34  1  0  0  0
 34 35  2  0  0  0
  9 10  1  0  0  0
 10 11  2  0  0  0
 10 12  1  0  0  0
 12 13  2  0  0  0
 13 14  1  0  0  0
 14 15  2  0  0  0
 15 16  1  0  0  0
 15 17  1  0  0  0
 17 18  2  0  0  0
  7  2  1  0  0  0
 35 30  1  0  0  0
 18 12  1  0  0  0
 28 19  1  0  0  0
 18  7  1  0  0  0
 28 23  1  0  0  0
M  END
> <minimizedAffinity>
-8.44115

> <CNNscore>
0.2882848978

> <CNNaffinity>
6.1533741951

> <CNN_VS>
1.7739248276

> <CNNaffinity_variance>
0.2465781271

$$$$



 35 40  0  0  0  0  0  0  0  0999 V2000
  -11.7254   -2.0293  -23.0692 C   0  0  0  0  0  0  0  0  0  0  0  0
  -10.2433   -1.9740  -23.2937 C   0  0  0  0  0  0  0  0  0  0  0  0
   -9.5930   -3.3093  -23.0840 C   0  0  0  0  0  0  0  0  0  0  0  0
   -8.1217   -3.1521  -23.3300 N   0  0  0  0  0  0  0  0  0  0  0  0
   -7.8627   -1.7196  -23.6916 C   0  0  0  0  0  0  0  0  0  0  0  0
   -6.5269   -1.1204  -24.0184 O   0  0  0  0  0  0  0  0  0  0  0  0
   -9.1739   -0.9914  -23.6692 C   0  0  0  0  0  0  0  0  0  0  0  0
   -8.0026   -0.1277  -24.0324 C   0  0  0  0  0  0  0  0  0  0  0  0
   -8.2083    1.3275  -24.3327 N   0  0  0  0  0  0  0  0  0  0  0  0
   -9.5853    1.9189  -24.2699 C   0  0  0  0  0  0  0  0  0  0  0  0
   -9.7910    3.3740  -24.5702 O   0  0  0  0  0  0  0  0  0  0  0  0
  -10.7567    1.0551  -23.9067 C   0  0  0  0  0  0  0  0  0  0  0  0
  -12.1337    1.6466  -23.8439 C   0  0  0  0  0  0  0  0  0  0  0  0
  -13.3050    0.7828  -23.4807 C   0  0  0  0  0  0  0  0  0  0  0  0
  -13.0993   -0.6723  -23.1803 C   0  0  0  0  0  0  0  0  0  0  0  0
  -14.2707   -1.5361  -22.8171 F   0  0  0  0  0  0  0  0  0  0  0  0
  -11.7223   -1.2637  -23.2432 C   0  0  0  0  0  0  0  0  0  0  0  0
  -10.5510   -0.4000  -23.6063 C   0  0  0  0  0  0  0  0  0  0  0  0
   -7.0904   -4.2369  -23.2316 C   0  0  0  0  0  0  0  0  0  0  0  0
   -6.3228   -4.4286  -21.9573 C   0  0  0  0  0  0  0  0  0  0  0  0
   -5.2915   -5.5134  -21.8589 N   0  0  0  0  0  0  0  0  0  0  0  0
   -5.0280   -6.4065  -23.0348 C   0  0  0  0  0  0  0  0  0  0  0  0
   -5.7957   -6.2148  -24.3092 C   0  0  0  0  0  0  0  0  0  0  0  0
   -5.5321   -7.1080  -25.4851 C   0  0  0  0  0  0  0  0  0  0  0  0
   -6.2998   -6.9163  -26.7594 C   0  0  0  0  0  0  0  0  0  0  0  0
   -7.3310   -5.8315  -26.8577 C   0  0  0  0  0  0  0  0  0  0  0  0
   -7.5946   -4.9384  -25.6818 C   0  0  0  0  0  0  0  0  0  0  0  0
   -6.8269   -5.1300  -24.4076 C   0  0  0  0  0  0  0  0  0  0  0  0
   -7.0368    2.1912  -24.6959 C   0  0  0  0  0  0  0  0  0  0  0  0
   -6.8684    3.5357  -24.0527 C   0  0  0  0  0  0  0  0  0  0  0  0
   -6.5323    4.7322  -24.8926 N   0  0  0  0  0  0  0  0  0  0  0  0
   -6.3638    6.0767  -24.2494 C   0  0  0  0  0  0  0  0  0  0  0  0
   -6.5314    6.2248  -22.7661 C   0  0  0  0  0  0  0  0  0  0  0  0
   -6.8676    5.0284  -21.9261 C   0  0  0  0  0  0  0  0  0  0  0  0
   -7.0360    3.6838  -22.5695 N   0  0  0  0  0  0  0  0  0  0  0  0
  2  1  1  0  0  0
  2  3  1  0  0  0
  3  4  1  0  0  0
  4 19  1  0  0  0
 19 20  2  0  0  0
 20 21  1  0  0  0
 21 22  2  0  0  0
 22 23  1  0  0  0
 23 24  2  0  0  0
 24 25  1  0  0  0
 25 26  2  0  0  0
 26 27  1  0  0  0
 27 28  2  0  0  0
  4  5  1  0  0  0
  5  6  2  0  0  0
  5  7  1  0  0  0
  7  8  1  0  0  0
  8  9  1  0  0  0
  9 29  1  0  0  0
 29 30  1  0  0  0
 30 31  2  0  0  0
 31 32  1  0  0  0
 32 33  2  0  0  0
 33 34  1  0  0  0
 34 35  2  0  0  0
  9 10  1  0  0  0
 10 11  2  0  0  0
 10 12  1  0  0  0
 12 13  2  0  0  0
 13 14  1  0  0  0
 14 15  2  0  0  0
 15 16  1  0  0  0
 15 17  1  0  0  0
 17 18  2  0  0  0
  7  2  1  0  0  0
 35 30  1  0  0  0
 18 12  1  0  0  0
 28 19  1  0  0  0
 18  7  1  0  0  0
 28 23  1  0  0  0
M  END
> <minimizedAffinity>
-7.92320

> <CNNscore>
0.2522402406

> <CNNaffinity>
6.3165612221

> <CNN_VS>
1.5932909250

> <CNNaffinity_variance>
0.2605898976

$$$$



 35 40  0  0  0  0  0  0  0  0999 V2000
   -9.5406   -4.3926  -25.1491 C   0  0  0  0  0  0  0  0  0  0  0  0
   -9.4736   -3.1778  -24.2717 C   0  0  0  0  0  0  0  0  0  0  0  0
  -10.5380   -2.1780  -24.6141 C   0  0  0  0  0  0  0  0  0  0  0  0
  -10.3892   -1.0072  -23.6884 N   0  0  0  0  0  0  0  0  0  0  0  0
   -9.2329   -1.2835  -22.7738 C   0  0  0  0  0  0  0  0  0  0  0  0
   -8.7306   -0.3773  -21.6891 O   0  0  0  0  0  0  0  0  0  0  0  0
   -8.6670   -2.6250  -23.1342 C   0  0  0  0  0  0  0  0  0  0  0  0
   -7.9544   -1.9466  -22.0021 C   0  0  0  0  0  0  0  0  0  0  0  0
   -6.7868   -2.6175  -21.3412 N   0  0  0  0  0  0  0  0  0  0  0  0
   -6.3319   -3.9669  -21.8125 C   0  0  0  0  0  0  0  0  0  0  0  0
   -5.1644   -4.6378  -21.1516 O   0  0  0  0  0  0  0  0  0  0  0  0
   -7.0445   -4.6454  -22.9447 C   0  0  0  0  0  0  0  0  0  0  0  0
   -6.5896   -5.9948  -23.4160 C   0  0  0  0  0  0  0  0  0  0  0  0
   -7.3022   -6.6732  -24.5482 C   0  0  0  0  0  0  0  0  0  0  0  0
   -8.4697   -6.0023  -25.2090 C   0  0  0  0  0  0  0  0  0  0  0  0
   -9.1823   -6.6809  -26.3413 F   0  0  0  0  0  0  0  0  0  0  0  0
   -8.9246   -4.6529  -24.7378 C   0  0  0  0  0  0  0  0  0  0  0  0
   -8.2120   -3.9745  -23.6056 C   0  0  0  0  0  0  0  0  0  0  0  0
  -11.2463    0.2238  -23.6788 C   0  0  0  0  0  0  0  0  0  0  0  0
  -12.6926    0.1277  -23.2932 C   0  0  0  0  0  0  0  0  0  0  0  0
  -13.5497    1.3587  -23.2837 N   0  0  0  0  0  0  0  0  0  0  0  0
  -12.9604    2.6858  -23.6598 C   0  0  0  0  0  0  0  0  0  0  0  0
  -11.5140    2.7819  -24.0455 C   0  0  0  0  0  0  0  0  0  0  0  0
  -10.9246    4.1091  -24.4216 C   0  0  0  0  0  0  0  0  0  0  0  0
   -9.4782    4.2051  -24.8073 C   0  0  0  0  0  0  0  0  0  0  0  0
   -8.6213    2.9741  -24.8168 C   0  0  0  0  0  0  0  0  0  0  0  0
   -9.2106    1.6470  -24.4406 C   0  0  0  0  0  0  0  0  0  0  0  0
  -10.6569    1.5509  -24.0550 C   0  0  0  0  0  0  0  0  0  0  0  0
   -6.0742   -1.9389  -20.2090 C   0  0  0  0  0  0  0  0  0  0  0  0
   -5.1105   -0.8244  -20.4898 C   0  0  0  0  0  0  0  0  0  0  0  0
   -4.5480   -0.6490  -21.8693 N   0  0  0  0  0  0  0  0  0  0  0  0
   -3.5842    0.4655  -22.1502 C   0  0  0  0  0  0  0  0  0  0  0  0
   -3.1828    1.4047  -21.0515 C   0  0  0  0  0  0  0  0  0  0  0  0
   -3.7453    1.2293  -19.6721 C   0  0  0  0  0  0  0  0  0  0  0  0
   -4.7091    0.1147  -19.3912 N   0  0  0  0  0  0  0  0  0  0  0  0
  2  1  1  0  0  0
  2  3  1  0  0  0
  3  4  1  0  0  0
  4 19  1  0  0  0
 19 20  2  0  0  0
 20 21  1  0  0  0
 21 22  2  0  0  0
 22 23  1  0  0  0
 23 24  2  0  0  0
 24 25  1  0  0  0
 25 26  2  0  0  0
 26 27  1  0  0  0
 27 28  2  0  0  0
  4  5  1  0  0  0
  5  6  2  0  0  0
  5  7  1  0  0  0
  7  8  1  0  0  0
  8  9  1  0  0  0
  9 29  1  0  0  0
 29 30  1  0  0  0
 30 31  2  0  0  0
 31 32  1  0  0  0
 32 33  2  0  0  0
 33 34  1  0  0  0
 34 35  2  0  0  0
  9 10  1  0  0  0
 10 11  2  0  0  0
 10 12  1  0  0  0
 12 13  2  0  0  0
 13 14  1  0  0  0
 14 15  2  0  0  0
 15 16  1  0  0  0
 15 17  1  0  0  0
 17 18  2  0  0  0
  7  2  1  0  0  0
 35 30  1  0  0  0
 18 12  1  0  0  0
 28 19  1  0  0  0
 18  7  1  0  0  0
 28 23  1  0  0  0
M  END
> <minimizedAffinity>
-8.76075

> <CNNscore>
0.2451411635

> <CNNaffinity>
6.3513512611

> <CNN_VS>
1.5569776297

> <CNNaffinity_variance>
0.0750400722

$$$$



 35 40  0  0  0  0  0  0  0  0999 V2000
  -11.5332   -2.3186  -23.0521 C   0  0  0  0  0  0  0  0  0  0  0  0
  -10.0531   -2.2704  -23.2914 C   0  0  0  0  0  0  0  0  0  0  0  0
   -9.4117   -3.6151  -23.1170 C   0  0  0  0  0  0  0  0  0  0  0  0
   -7.9418   -3.4646  -23.3755 N   0  0  0  0  0  0  0  0  0  0  0  0
   -7.6748   -2.0268  -23.7096 C   0  0  0  0  0  0  0  0  0  0  0  0
   -6.3377   -1.4316  -24.0381 O   0  0  0  0  0  0  0  0  0  0  0  0
   -8.9797   -1.2888  -23.6576 C   0  0  0  0  0  0  0  0  0  0  0  0
   -7.8052   -0.4270  -24.0151 C   0  0  0  0  0  0  0  0  0  0  0  0
   -8.0020    1.0358  -24.2825 N   0  0  0  0  0  0  0  0  0  0  0  0
   -9.3733    1.6368  -24.1923 C   0  0  0  0  0  0  0  0  0  0  0  0
   -9.5701    3.0996  -24.4596 O   0  0  0  0  0  0  0  0  0  0  0  0
  -10.5479    0.7751  -23.8347 C   0  0  0  0  0  0  0  0  0  0  0  0
  -11.9192    1.3761  -23.7445 C   0  0  0  0  0  0  0  0  0  0  0  0
  -13.0937    0.5143  -23.3870 C   0  0  0  0  0  0  0  0  0  0  0  0
  -12.8969   -0.9485  -23.1197 C   0  0  0  0  0  0  0  0  0  0  0  0
  -14.0715   -1.8103  -22.7622 F   0  0  0  0  0  0  0  0  0  0  0  0
  -11.5256   -1.5495  -23.2099 C   0  0  0  0  0  0  0  0  0  0  0  0
  -10.3511   -0.6877  -23.5674 C   0  0  0  0  0  0  0  0  0  0  0  0
   -6.9186   -4.5595  -23.3112 C   0  0  0  0  0  0  0  0  0  0  0  0
   -6.1933   -4.8336  -22.0272 C   0  0  0  0  0  0  0  0  0  0  0  0
   -5.1700   -5.9286  -21.9629 N   0  0  0  0  0  0  0  0  0  0  0  0
   -4.8722   -6.7493  -23.1826 C   0  0  0  0  0  0  0  0  0  0  0  0
   -5.5976   -6.4751  -24.4666 C   0  0  0  0  0  0  0  0  0  0  0  0
   -5.2997   -7.2959  -25.6864 C   0  0  0  0  0  0  0  0  0  0  0  0
   -6.0252   -7.0217  -26.9703 C   0  0  0  0  0  0  0  0  0  0  0  0
   -7.0484   -5.9268  -27.0346 C   0  0  0  0  0  0  0  0  0  0  0  0
   -7.3462   -5.1060  -25.8149 C   0  0  0  0  0  0  0  0  0  0  0  0
   -6.6208   -5.3802  -24.5309 C   0  0  0  0  0  0  0  0  0  0  0  0
   -6.8274    1.8976  -24.6400 C   0  0  0  0  0  0  0  0  0  0  0  0
   -5.4424    1.3219  -24.6242 C   0  0  0  0  0  0  0  0  0  0  0  0
   -4.8373    0.7889  -25.8891 N   0  0  0  0  0  0  0  0  0  0  0  0
   -3.4523    0.2132  -25.8733 C   0  0  0  0  0  0  0  0  0  0  0  0
   -2.6723    0.1704  -24.5927 C   0  0  0  0  0  0  0  0  0  0  0  0
   -3.2775    0.7034  -23.3278 C   0  0  0  0  0  0  0  0  0  0  0  0
   -4.6625    1.2791  -23.3437 N   0  0  0  0  0  0  0  0  0  0  0  0
  2  1  1  0  0  0
  2  3  1  0  0  0
  3  4  1  0  0  0
  4 19  1  0  0  0
 19 20  2  0  0  0
 20 21  1  0  0  0
 21 22  2  0  0  0
 22 23  1  0  0  0
 23 24  2  0  0  0
 24 25  1  0  0  0
 25 26  2  0  0  0
 26 27  1  0  0  0
 27 28  2  0  0  0
  4  5  1  0  0  0
  5  6  2  0  0  0
  5  7  1  0  0  0
  7  8  1  0  0  0
  8  9  1  0  0  0
  9 29  1  0  0  0
 29 30  1  0  0  0
 30 31  2  0  0  0
 31 32  1  0  0  0
 32 33  2  0  0  0
 33 34  1  0  0  0
 34 35  2  0  0  0
  9 10  1  0  0  0
 10 11  2  0  0  0
 10 12  1  0  0  0
 12 13  2  0  0  0
 13 14  1  0  0  0
 14 15  2  0  0  0
 15 16  1  0  0  0
 15 17  1  0  0  0
 17 18  2  0  0  0
  7  2  1  0  0  0
 35 30  1  0  0  0
 18 12  1  0  0  0
 28 19  1  0  0  0
 18  7  1  0  0  0
 28 23  1  0  0  0
M  END
> <minimizedAffinity>
-7.60027

> <CNNscore>
0.2142115831

> <CNNaffinity>
6.3915300369

> <CNN_VS>
1.3691397905

> <CNNaffinity_variance>
0.1559126228

$$$$



 35 40  0  0  0  0  0  0  0  0999 V2000
   -6.1971    4.4421  -23.6483 C   0  0  0  0  0  0  0  0  0  0  0  0
   -6.9693    3.2460  -23.1758 C   0  0  0  0  0  0  0  0  0  0  0  0
   -8.4003    3.2884  -23.6235 C   0  0  0  0  0  0  0  0  0  0  0  0
   -9.0847    2.0584  -23.1052 N   0  0  0  0  0  0  0  0  0  0  0  0
   -8.0767    1.2559  -22.3371 C   0  0  0  0  0  0  0  0  0  0  0  0
   -8.3314   -0.0512  -21.6467 O   0  0  0  0  0  0  0  0  0  0  0  0
   -6.7693    1.9899  -22.3808 C   0  0  0  0  0  0  0  0  0  0  0  0
   -6.7209    0.7026  -21.6123 C   0  0  0  0  0  0  0  0  0  0  0  0
   -5.4386    0.2584  -20.9731 N   0  0  0  0  0  0  0  0  0  0  0  0
   -4.2048    1.1015  -21.1024 C   0  0  0  0  0  0  0  0  0  0  0  0
   -2.9225    0.6573  -20.4632 O   0  0  0  0  0  0  0  0  0  0  0  0
   -4.2531    2.3889  -21.8709 C   0  0  0  0  0  0  0  0  0  0  0  0
   -3.0193    3.2319  -22.0002 C   0  0  0  0  0  0  0  0  0  0  0  0
   -3.0677    4.5192  -22.7686 C   0  0  0  0  0  0  0  0  0  0  0  0
   -4.3499    4.9634  -23.4078 C   0  0  0  0  0  0  0  0  0  0  0  0
   -4.3983    6.2507  -24.1763 F   0  0  0  0  0  0  0  0  0  0  0  0
   -5.5838    4.1203  -23.2785 C   0  0  0  0  0  0  0  0  0  0  0  0
   -5.5354    2.8330  -22.5101 C   0  0  0  0  0  0  0  0  0  0  0  0
  -10.5244    1.6947  -23.3176 C   0  0  0  0  0  0  0  0  0  0  0  0
  -10.9411    0.2539  -23.3226 C   0  0  0  0  0  0  0  0  0  0  0  0
  -12.3808   -0.1098  -23.5350 N   0  0  0  0  0  0  0  0  0  0  0  0
  -13.4037    0.9675  -23.7425 C   0  0  0  0  0  0  0  0  0  0  0  0
  -12.9869    2.4085  -23.7375 C   0  0  0  0  0  0  0  0  0  0  0  0
  -14.0099    3.4858  -23.9450 C   0  0  0  0  0  0  0  0  0  0  0  0
  -13.5930    4.9267  -23.9400 C   0  0  0  0  0  0  0  0  0  0  0  0
  -12.1534    5.2903  -23.7276 C   0  0  0  0  0  0  0  0  0  0  0  0
  -11.1305    4.2130  -23.5201 C   0  0  0  0  0  0  0  0  0  0  0  0
  -11.5472    2.7721  -23.5251 C   0  0  0  0  0  0  0  0  0  0  0  0
   -5.3903   -1.0289  -20.2046 C   0  0  0  0  0  0  0  0  0  0  0  0
   -5.6263   -2.3321  -20.9089 C   0  0  0  0  0  0  0  0  0  0  0  0
   -6.2133   -2.3431  -22.2892 N   0  0  0  0  0  0  0  0  0  0  0  0
   -6.4494   -3.6463  -22.9934 C   0  0  0  0  0  0  0  0  0  0  0  0
   -6.0984   -4.9385  -22.3173 C   0  0  0  0  0  0  0  0  0  0  0  0
   -5.5113   -4.9275  -20.9370 C   0  0  0  0  0  0  0  0  0  0  0  0
   -5.2753   -3.6242  -20.2328 N   0  0  0  0  0  0  0  0  0  0  0  0
  2  1  1  0  0  0
  2  3  1  0  0  0
  3  4  1  0  0  0
  4 19  1  0  0  0
 19 20  2  0  0  0
 20 21  1  0  0  0
 21 22  2  0  0  0
 22 23  1  0  0  0
 23 24  2  0  0  0
 24 25  1  0  0  0
 25 26  2  0  0  0
 26 27  1  0  0  0
 27 28  2  0  0  0
  4  5  1  0  0  0
  5  6  2  0  0  0
  5  7  1  0  0  0
  7  8  1  0  0  0
  8  9  1  0  0  0
  9 29  1  0  0  0
 29 30  1  0  0  0
 30 31  2  0  0  0
 31 32  1  0  0  0
 32 33  2  0  0  0
 33 34  1  0  0  0
 34 35  2  0  0  0
  9 10  1  0  0  0
 10 11  2  0  0  0
 10 12  1  0  0  0
 12 13  2  0  0  0
 13 14  1  0  0  0
 14 15  2  0  0  0
 15 16  1  0  0  0
 15 17  1  0  0  0
 17 18  2  0  0  0
  7  2  1  0  0  0
 35 30  1  0  0  0
 18 12  1  0  0  0
 28 19  1  0  0  0
 18  7  1  0  0  0
 28 23  1  0  0  0
M  END
> <minimizedAffinity>
-7.88375

> <CNNscore>
0.2077608556

> <CNNaffinity>
5.8809924126

> <CNN_VS>
1.2218400240

> <CNNaffinity_variance>
0.1937346607

$$$$
