


 34 39  0  0  0  0  0  0  0  0999 V2000
   -5.8869   -5.5255  -22.8905 C   0  0  0  0  0  0  0  0  0  0  0  0
   -6.4236   -4.1955  -22.4508 C   0  0  0  0  0  0  0  0  0  0  0  0
   -5.5662   -3.5653  -21.3936 C   0  0  0  0  0  0  0  0  0  0  0  0
   -6.1812   -2.2486  -21.0221 N   0  0  0  0  0  0  0  0  0  0  0  0
   -7.4187   -2.0651  -21.8497 C   0  0  0  0  0  0  0  0  0  0  0  0
   -8.3440   -0.8854  -21.8026 O   0  0  0  0  0  0  0  0  0  0  0  0
   -7.5685   -3.2684  -22.7327 C   0  0  0  0  0  0  0  0  0  0  0  0
   -8.6518   -2.2455  -22.9064 C   0  0  0  0  0  0  0  0  0  0  0  0
   -9.7532   -2.4804  -23.8973 N   0  0  0  0  0  0  0  0  0  0  0  0
   -9.7713   -3.7382  -24.7144 C   0  0  0  0  0  0  0  0  0  0  0  0
  -10.8726   -3.9730  -25.7053 O   0  0  0  0  0  0  0  0  0  0  0  0
   -8.6879   -4.7611  -24.5407 C   0  0  0  0  0  0  0  0  0  0  0  0
   -8.7060   -6.0188  -25.3579 C   0  0  0  0  0  0  0  0  0  0  0  0
   -7.6227   -7.0416  -25.1841 C   0  0  0  0  0  0  0  0  0  0  0  0
   -6.5214   -6.8068  -24.1933 C   0  0  0  0  0  0  0  0  0  0  0  0
   -5.4380   -7.8297  -24.0195 F   0  0  0  0  0  0  0  0  0  0  0  0
   -6.5033   -5.5490  -23.3761 C   0  0  0  0  0  0  0  0  0  0  0  0
   -7.5866   -4.5262  -23.5499 C   0  0  0  0  0  0  0  0  0  0  0  0
   -5.6517   -1.2846  -20.0022 C   0  0  0  0  0  0  0  0  0  0  0  0
   -6.1012   -1.3813  -18.5745 C   0  0  0  0  0  0  0  0  0  0  0  0
   -5.5717   -0.4173  -17.5545 N   0  0  0  0  0  0  0  0  0  0  0  0
   -4.5927    0.6434  -17.9623 C   0  0  0  0  0  0  0  0  0  0  0  0
   -4.1431    0.7401  -19.3901 C   0  0  0  0  0  0  0  0  0  0  0  0
   -3.1640    1.8009  -19.7980 C   0  0  0  0  0  0  0  0  0  0  0  0
   -2.7145    1.8975  -21.2258 C   0  0  0  0  0  0  0  0  0  0  0  0
   -3.2440    0.9335  -22.2456 C   0  0  0  0  0  0  0  0  0  0  0  0
   -4.2231   -0.1272  -21.8378 C   0  0  0  0  0  0  0  0  0  0  0  0
   -4.6726   -0.2239  -20.4101 C   0  0  0  0  0  0  0  0  0  0  0  0
  -10.8365   -1.4575  -24.0710 C   0  0  0  0  0  0  0  0  0  0  0  0
  -12.1563   -1.6384  -23.3816 C   0  0  0  0  0  0  0  0  0  0  0  0
  -13.3466   -0.7339  -23.5047 C   0  0  0  0  0  0  0  0  0  0  0  0
  -14.4435   -1.2919  -22.6473 O   0  0  0  0  0  0  0  0  0  0  0  0
  -13.9312   -2.5414  -21.9941 C   0  0  0  0  0  0  0  0  0  0  0  0
  -12.5176   -2.7554  -22.4480 N   0  0  0  0  0  0  0  0  0  0  0  0
  2  1  1  0  0  0
  2  3  1  0  0  0
  3  4  1  0  0  0
  4 19  1  0  0  0
 19 20  2  0  0  0
 20 21  1  0  0  0
 21 22  2  0  0  0
 22 23  1  0  0  0
 23 24  2  0  0  0
 24 25  1  0  0  0
 25 26  2  0  0  0
 26 27  1  0  0  0
 27 28  2  0  0  0
  4  5  1  0  0  0
  5  6  2  0  0  0
  5  7  1  0  0  0
  7  8  1  0  0  0
  8  9  1  0  0  0
  9 29  1  0  0  0
 29 30  1  0  0  0
 30 31  2  0  0  0
 31 32  1  0  0  0
 32 33  1  0  0  0
 33 34  2  0  0  0
  9 10  1  0  0  0
 10 11  2  0  0  0
 10 12  1  0  0  0
 12 13  2  0  0  0
 13 14  1  0  0  0
 14 15  2  0  0  0
 15 16  1  0  0  0
 15 17  1  0  0  0
 17 18  2  0  0  0
  7  2  1  0  0  0
 34 30  1  0  0  0
 18 12  1  0  0  0
 28 19  1  0  0  0
 18  7  1  0  0  0
 28 23  1  0  0  0
M  END
> <minimizedAffinity>
-9.04830

> <CNNscore>
0.6643267870

> <CNNaffinity>
6.6506700516

> <CNN_VS>
4.4182181358

> <CNNaffinity_variance>
0.1857070774

$$$$



 34 39  0  0  0  0  0  0  0  0999 V2000
   -9.4954   -2.5144  -23.7231 C   0  0  0  0  0  0  0  0  0  0  0  0
   -8.2610   -2.7405  -22.9014 C   0  0  0  0  0  0  0  0  0  0  0  0
   -7.9930   -1.6001  -21.9644 C   0  0  0  0  0  0  0  0  0  0  0  0
   -6.7471   -1.9178  -21.1920 N   0  0  0  0  0  0  0  0  0  0  0  0
   -6.2450   -3.2545  -21.6516 C   0  0  0  0  0  0  0  0  0  0  0  0
   -5.0219   -3.9590  -21.1439 O   0  0  0  0  0  0  0  0  0  0  0  0
   -7.1806   -3.7629  -22.7080 C   0  0  0  0  0  0  0  0  0  0  0  0
   -6.0400   -4.6892  -22.4062 C   0  0  0  0  0  0  0  0  0  0  0  0
   -5.9169   -5.9914  -23.1404 N   0  0  0  0  0  0  0  0  0  0  0  0
   -6.9344   -6.3674  -24.1764 C   0  0  0  0  0  0  0  0  0  0  0  0
   -6.8113   -7.6697  -24.9106 O   0  0  0  0  0  0  0  0  0  0  0  0
   -8.0751   -5.4412  -24.4783 C   0  0  0  0  0  0  0  0  0  0  0  0
   -9.0925   -5.8172  -25.5142 C   0  0  0  0  0  0  0  0  0  0  0  0
  -10.2331   -4.8910  -25.8160 C   0  0  0  0  0  0  0  0  0  0  0  0
  -10.3562   -3.5887  -25.0819 C   0  0  0  0  0  0  0  0  0  0  0  0
  -11.4969   -2.6625  -25.3837 F   0  0  0  0  0  0  0  0  0  0  0  0
   -9.3388   -3.2127  -24.0459 C   0  0  0  0  0  0  0  0  0  0  0  0
   -8.1982   -4.1389  -23.7441 C   0  0  0  0  0  0  0  0  0  0  0  0
   -6.1143   -1.0510  -20.1441 C   0  0  0  0  0  0  0  0  0  0  0  0
   -6.6571   -1.0473  -18.7459 C   0  0  0  0  0  0  0  0  0  0  0  0
   -6.0243   -0.1805  -17.6979 N   0  0  0  0  0  0  0  0  0  0  0  0
   -4.8486    0.6825  -18.0483 C   0  0  0  0  0  0  0  0  0  0  0  0
   -4.3057    0.6788  -19.4466 C   0  0  0  0  0  0  0  0  0  0  0  0
   -3.1299    1.5420  -19.7969 C   0  0  0  0  0  0  0  0  0  0  0  0
   -2.5871    1.5382  -21.1953 C   0  0  0  0  0  0  0  0  0  0  0  0
   -3.2199    0.6714  -22.2431 C   0  0  0  0  0  0  0  0  0  0  0  0
   -4.3956   -0.1916  -21.8928 C   0  0  0  0  0  0  0  0  0  0  0  0
   -4.9385   -0.1879  -20.4945 C   0  0  0  0  0  0  0  0  0  0  0  0
   -4.7763   -6.9177  -22.8386 C   0  0  0  0  0  0  0  0  0  0  0  0
   -3.4775   -6.7728  -23.5748 C   0  0  0  0  0  0  0  0  0  0  0  0
   -3.3177   -6.3586  -25.0076 C   0  0  0  0  0  0  0  0  0  0  0  0
   -1.8519   -6.3464  -25.3259 O   0  0  0  0  0  0  0  0  0  0  0  0
   -1.1057   -6.7531  -24.0897 C   0  0  0  0  0  0  0  0  0  0  0  0
   -2.1104   -7.0166  -23.0076 N   0  0  0  0  0  0  0  0  0  0  0  0
  2  1  1  0  0  0
  2  3  1  0  0  0
  3  4  1  0  0  0
  4 19  1  0  0  0
 19 20  2  0  0  0
 20 21  1  0  0  0
 21 22  2  0  0  0
 22 23  1  0  0  0
 23 24  2  0  0  0
 24 25  1  0  0  0
 25 26  2  0  0  0
 26 27  1  0  0  0
 27 28  2  0  0  0
  4  5  1  0  0  0
  5  6  2  0  0  0
  5  7  1  0  0  0
  7  8  1  0  0  0
  8  9  1  0  0  0
  9 29  1  0  0  0
 29 30  1  0  0  0
 30 31  2  0  0  0
 31 32  1  0  0  0
 32 33  1  0  0  0
 33 34  2  0  0  0
  9 10  1  0  0  0
 10 11  2  0  0  0
 10 12  1  0  0  0
 12 13  2  0  0  0
 13 14  1  0  0  0
 14 15  2  0  0  0
 15 16  1  0  0  0
 15 17  1  0  0  0
 17 18  2  0  0  0
  7  2  1  0  0  0
 34 30  1  0  0  0
 18 12  1  0  0  0
 28 19  1  0  0  0
 18  7  1  0  0  0
 28 23  1  0  0  0
M  END
> <minimizedAffinity>
-8.36294

> <CNNscore>
0.5742704868

> <CNNaffinity>
6.4393548965

> <CNN_VS>
3.6979315281

> <CNNaffinity_variance>
0.1137910336

$$$$



 34 39  0  0  0  0  0  0  0  0999 V2000
  -10.8517   -2.6720  -24.5335 C   0  0  0  0  0  0  0  0  0  0  0  0
  -10.4396   -1.3752  -23.9022 C   0  0  0  0  0  0  0  0  0  0  0  0
  -11.5197   -0.3383  -23.9922 C   0  0  0  0  0  0  0  0  0  0  0  0
  -11.0158    0.9139  -23.3378 N   0  0  0  0  0  0  0  0  0  0  0  0
   -9.6243    0.6508  -22.8435 C   0  0  0  0  0  0  0  0  0  0  0  0
   -8.7435    1.6305  -22.1262 O   0  0  0  0  0  0  0  0  0  0  0  0
   -9.2681   -0.7640  -23.1923 C   0  0  0  0  0  0  0  0  0  0  0  0
   -8.1820   -0.0213  -22.4720 C   0  0  0  0  0  0  0  0  0  0  0  0
   -6.8826   -0.7048  -22.1648 N   0  0  0  0  0  0  0  0  0  0  0  0
   -6.6693   -2.1309  -22.5779 C   0  0  0  0  0  0  0  0  0  0  0  0
   -5.3699   -2.8144  -22.2707 O   0  0  0  0  0  0  0  0  0  0  0  0
   -7.7554   -2.8736  -23.2982 C   0  0  0  0  0  0  0  0  0  0  0  0
   -7.5421   -4.2997  -23.7112 C   0  0  0  0  0  0  0  0  0  0  0  0
   -8.6282   -5.0424  -24.4315 C   0  0  0  0  0  0  0  0  0  0  0  0
   -9.9277   -4.3589  -24.7387 C   0  0  0  0  0  0  0  0  0  0  0  0
  -11.0138   -5.1016  -25.4590 F   0  0  0  0  0  0  0  0  0  0  0  0
  -10.1410   -2.9328  -24.3256 C   0  0  0  0  0  0  0  0  0  0  0  0
   -9.0549   -2.1902  -23.6054 C   0  0  0  0  0  0  0  0  0  0  0  0
  -11.7709    2.2028  -23.2017 C   0  0  0  0  0  0  0  0  0  0  0  0
  -12.9033    2.3090  -22.2240 C   0  0  0  0  0  0  0  0  0  0  0  0
  -13.6584    3.5979  -22.0879 N   0  0  0  0  0  0  0  0  0  0  0  0
  -13.2808    4.7807  -22.9296 C   0  0  0  0  0  0  0  0  0  0  0  0
  -12.1483    4.6745  -23.9074 C   0  0  0  0  0  0  0  0  0  0  0  0
  -11.7707    5.8574  -24.7491 C   0  0  0  0  0  0  0  0  0  0  0  0
  -10.6382    5.7511  -25.7269 C   0  0  0  0  0  0  0  0  0  0  0  0
   -9.8832    4.4622  -25.8629 C   0  0  0  0  0  0  0  0  0  0  0  0
  -10.2608    3.2794  -25.0212 C   0  0  0  0  0  0  0  0  0  0  0  0
  -11.3932    3.3856  -24.0435 C   0  0  0  0  0  0  0  0  0  0  0  0
   -5.7965    0.0379  -21.4445 C   0  0  0  0  0  0  0  0  0  0  0  0
   -5.6354   -0.1210  -19.9617 C   0  0  0  0  0  0  0  0  0  0  0  0
   -6.1165   -1.2814  -19.1419 C   0  0  0  0  0  0  0  0  0  0  0  0
   -5.7433   -1.0250  -17.7119 O   0  0  0  0  0  0  0  0  0  0  0  0
   -5.0315    0.2939  -17.6478 C   0  0  0  0  0  0  0  0  0  0  0  0
   -4.9648    0.8525  -19.0383 N   0  0  0  0  0  0  0  0  0  0  0  0
  2  1  1  0  0  0
  2  3  1  0  0  0
  3  4  1  0  0  0
  4 19  1  0  0  0
 19 20  2  0  0  0
 20 21  1  0  0  0
 21 22  2  0  0  0
 22 23  1  0  0  0
 23 24  2  0  0  0
 24 25  1  0  0  0
 25 26  2  0  0  0
 26 27  1  0  0  0
 27 28  2  0  0  0
  4  5  1  0  0  0
  5  6  2  0  0  0
  5  7  1  0  0  0
  7  8  1  0  0  0
  8  9  1  0  0  0
  9 29  1  0  0  0
 29 30  1  0  0  0
 30 31  2  0  0  0
 31 32  1  0  0  0
 32 33  1  0  0  0
 33 34  2  0  0  0
  9 10  1  0  0  0
 10 11  2  0  0  0
 10 12  1  0  0  0
 12 13  2  0  0  0
 13 14  1  0  0  0
 14 15  2  0  0  0
 15 16  1  0  0  0
 15 17  1  0  0  0
 17 18  2  0  0  0
  7  2  1  0  0  0
 34 30  1  0  0  0
 18 12  1  0  0  0
 28 19  1  0  0  0
 18  7  1  0  0  0
 28 23  1  0  0  0
M  END
> <minimizedAffinity>
-8.30656

> <CNNscore>
0.4900898039

> <CNNaffinity>
6.4485344887

> <CNN_VS>
3.1603610516

> <CNNaffinity_variance>
0.0690274537

$$$$



 34 39  0  0  0  0  0  0  0  0999 V2000
  -10.4505   -3.9966  -25.1832 C   0  0  0  0  0  0  0  0  0  0  0  0
   -9.9267   -2.8163  -24.4198 C   0  0  0  0  0  0  0  0  0  0  0  0
  -10.8040   -1.6100  -24.5789 C   0  0  0  0  0  0  0  0  0  0  0  0
  -10.2007   -0.4901  -23.7840 N   0  0  0  0  0  0  0  0  0  0  0  0
   -8.9506   -1.0043  -23.1336 C   0  0  0  0  0  0  0  0  0  0  0  0
   -8.0313   -0.2187  -22.2461 O   0  0  0  0  0  0  0  0  0  0  0  0
   -8.7813   -2.4419  -23.5266 C   0  0  0  0  0  0  0  0  0  0  0  0
   -7.6997   -1.9244  -22.6254 C   0  0  0  0  0  0  0  0  0  0  0  0
   -6.5813   -2.8288  -22.1999 N   0  0  0  0  0  0  0  0  0  0  0  0
   -6.5445   -4.2509  -22.6756 C   0  0  0  0  0  0  0  0  0  0  0  0
   -5.4261   -5.1554  -22.2500 O   0  0  0  0  0  0  0  0  0  0  0  0
   -7.6261   -4.7686  -23.5768 C   0  0  0  0  0  0  0  0  0  0  0  0
   -7.5893   -6.1907  -24.0524 C   0  0  0  0  0  0  0  0  0  0  0  0
   -8.6709   -6.7082  -24.9536 C   0  0  0  0  0  0  0  0  0  0  0  0
   -9.7893   -5.8037  -25.3791 C   0  0  0  0  0  0  0  0  0  0  0  0
  -10.8710   -6.3214  -26.2804 F   0  0  0  0  0  0  0  0  0  0  0  0
   -9.8261   -4.3817  -24.9035 C   0  0  0  0  0  0  0  0  0  0  0  0
   -8.7445   -3.8641  -24.0023 C   0  0  0  0  0  0  0  0  0  0  0  0
  -10.7509    0.8999  -23.6609 C   0  0  0  0  0  0  0  0  0  0  0  0
  -11.8932    1.1745  -22.7285 C   0  0  0  0  0  0  0  0  0  0  0  0
  -12.4434    2.5646  -22.6055 N   0  0  0  0  0  0  0  0  0  0  0  0
  -11.8512    3.6799  -23.4150 C   0  0  0  0  0  0  0  0  0  0  0  0
  -10.7088    3.4052  -24.3475 C   0  0  0  0  0  0  0  0  0  0  0  0
  -10.1166    4.5207  -25.1570 C   0  0  0  0  0  0  0  0  0  0  0  0
   -8.9743    4.2459  -26.0894 C   0  0  0  0  0  0  0  0  0  0  0  0
   -8.4241    2.8559  -26.2124 C   0  0  0  0  0  0  0  0  0  0  0  0
   -9.0163    1.7406  -25.4029 C   0  0  0  0  0  0  0  0  0  0  0  0
  -10.1586    2.0152  -24.4705 C   0  0  0  0  0  0  0  0  0  0  0  0
   -5.4996   -2.3112  -21.2987 C   0  0  0  0  0  0  0  0  0  0  0  0
   -5.8542   -1.4748  -20.1051 C   0  0  0  0  0  0  0  0  0  0  0  0
   -7.1606   -1.4989  -19.3684 C   0  0  0  0  0  0  0  0  0  0  0  0
   -7.0786   -0.5064  -18.2467 O   0  0  0  0  0  0  0  0  0  0  0  0
   -5.7214    0.1311  -18.2902 C   0  0  0  0  0  0  0  0  0  0  0  0
   -4.9648   -0.4674  -19.4387 N   0  0  0  0  0  0  0  0  0  0  0  0
  2  1  1  0  0  0
  2  3  1  0  0  0
  3  4  1  0  0  0
  4 19  1  0  0  0
 19 20  2  0  0  0
 20 21  1  0  0  0
 21 22  2  0  0  0
 22 23  1  0  0  0
 23 24  2  0  0  0
 24 25  1  0  0  0
 25 26  2  0  0  0
 26 27  1  0  0  0
 27 28  2  0  0  0
  4  5  1  0  0  0
  5  6  2  0  0  0
  5  7  1  0  0  0
  7  8  1  0  0  0
  8  9  1  0  0  0
  9 29  1  0  0  0
 29 30  1  0  0  0
 30 31  2  0  0  0
 31 32  1  0  0  0
 32 33  1  0  0  0
 33 34  2  0  0  0
  9 10  1  0  0  0
 10 11  2  0  0  0
 10 12  1  0  0  0
 12 13  2  0  0  0
 13 14  1  0  0  0
 14 15  2  0  0  0
 15 16  1  0  0  0
 15 17  1  0  0  0
 17 18  2  0  0  0
  7  2  1  0  0  0
 34 30  1  0  0  0
 18 12  1  0  0  0
 28 19  1  0  0  0
 18  7  1  0  0  0
 28 23  1  0  0  0
M  END
> <minimizedAffinity>
-8.12104

> <CNNscore>
0.4662796855

> <CNNaffinity>
6.4969301224

> <CNN_VS>
3.0293865204

> <CNNaffinity_variance>
0.2290824205

$$$$



 34 39  0  0  0  0  0  0  0  0999 V2000
   -7.2639   -0.0505  -21.2447 C   0  0  0  0  0  0  0  0  0  0  0  0
   -8.4805   -0.1628  -22.1150 C   0  0  0  0  0  0  0  0  0  0  0  0
   -9.2429    1.1272  -22.1840 C   0  0  0  0  0  0  0  0  0  0  0  0
  -10.4334    0.9151  -23.0715 N   0  0  0  0  0  0  0  0  0  0  0  0
  -10.4067   -0.5060  -23.5510 C   0  0  0  0  0  0  0  0  0  0  0  0
  -11.4108   -1.1481  -24.4617 O   0  0  0  0  0  0  0  0  0  0  0  0
   -9.1998   -1.1721  -22.9598 C   0  0  0  0  0  0  0  0  0  0  0  0
  -10.0234   -2.0685  -23.8363 C   0  0  0  0  0  0  0  0  0  0  0  0
   -9.6085   -3.4937  -24.0521 N   0  0  0  0  0  0  0  0  0  0  0  0
   -8.3701   -4.0226  -23.3914 C   0  0  0  0  0  0  0  0  0  0  0  0
   -7.9553   -5.4479  -23.6072 O   0  0  0  0  0  0  0  0  0  0  0  0
   -7.5464   -3.1263  -22.5149 C   0  0  0  0  0  0  0  0  0  0  0  0
   -6.3080   -3.6552  -21.8542 C   0  0  0  0  0  0  0  0  0  0  0  0
   -5.4844   -2.7589  -20.9778 C   0  0  0  0  0  0  0  0  0  0  0  0
   -5.8993   -1.3336  -20.7620 C   0  0  0  0  0  0  0  0  0  0  0  0
   -5.0756   -0.4373  -19.8854 F   0  0  0  0  0  0  0  0  0  0  0  0
   -7.1377   -0.8047  -21.4226 C   0  0  0  0  0  0  0  0  0  0  0  0
   -7.9613   -1.7010  -22.2991 C   0  0  0  0  0  0  0  0  0  0  0  0
  -11.4688    1.9434  -23.4186 C   0  0  0  0  0  0  0  0  0  0  0  0
  -12.9036    1.7194  -23.0433 C   0  0  0  0  0  0  0  0  0  0  0  0
  -13.9390    2.7477  -23.3904 N   0  0  0  0  0  0  0  0  0  0  0  0
  -13.5395    4.0001  -24.1128 C   0  0  0  0  0  0  0  0  0  0  0  0
  -12.1046    4.2241  -24.4881 C   0  0  0  0  0  0  0  0  0  0  0  0
  -11.7050    5.4766  -25.2105 C   0  0  0  0  0  0  0  0  0  0  0  0
  -10.2701    5.7006  -25.5858 C   0  0  0  0  0  0  0  0  0  0  0  0
   -9.2348    4.6722  -25.2387 C   0  0  0  0  0  0  0  0  0  0  0  0
   -9.6343    3.4198  -24.5163 C   0  0  0  0  0  0  0  0  0  0  0  0
  -11.0692    3.1958  -24.1410 C   0  0  0  0  0  0  0  0  0  0  0  0
  -10.4322   -4.3901  -24.9286 C   0  0  0  0  0  0  0  0  0  0  0  0
   -9.8277   -4.9961  -26.1604 C   0  0  0  0  0  0  0  0  0  0  0  0
   -9.3979   -4.2514  -27.3895 C   0  0  0  0  0  0  0  0  0  0  0  0
   -8.8515   -5.2483  -28.3681 O   0  0  0  0  0  0  0  0  0  0  0  0
   -8.9436   -6.6092  -27.7438 C   0  0  0  0  0  0  0  0  0  0  0  0
   -9.5470   -6.4533  -26.3794 N   0  0  0  0  0  0  0  0  0  0  0  0
  2  1  1  0  0  0
  2  3  1  0  0  0
  3  4  1  0  0  0
  4 19  1  0  0  0
 19 20  2  0  0  0
 20 21  1  0  0  0
 21 22  2  0  0  0
 22 23  1  0  0  0
 23 24  2  0  0  0
 24 25  1  0  0  0
 25 26  2  0  0  0
 26 27  1  0  0  0
 27 28  2  0  0  0
  4  5  1  0  0  0
  5  6  2  0  0  0
  5  7  1  0  0  0
  7  8  1  0  0  0
  8  9  1  0  0  0
  9 29  1  0  0  0
 29 30  1  0  0  0
 30 31  2  0  0  0
 31 32  1  0  0  0
 32 33  1  0  0  0
 33 34  2  0  0  0
  9 10  1  0  0  0
 10 11  2  0  0  0
 10 12  1  0  0  0
 12 13  2  0  0  0
 13 14  1  0  0  0
 14 15  2  0  0  0
 15 16  1  0  0  0
 15 17  1  0  0  0
 17 18  2  0  0  0
  7  2  1  0  0  0
 34 30  1  0  0  0
 18 12  1  0  0  0
 28 19  1  0  0  0
 18  7  1  0  0  0
 28 23  1  0  0  0
M  END
> <minimizedAffinity>
-9.09180

> <CNNscore>
0.4239669144

> <CNNaffinity>
6.2018961906

> <CNN_VS>
2.6293988228

> <CNNaffinity_variance>
0.2489383966

$$$$



 34 39  0  0  0  0  0  0  0  0999 V2000
   -7.2956   -3.1001  -22.7737 C   0  0  0  0  0  0  0  0  0  0  0  0
   -7.0164   -1.6426  -22.5550 C   0  0  0  0  0  0  0  0  0  0  0  0
   -5.6568   -1.4134  -21.9642 C   0  0  0  0  0  0  0  0  0  0  0  0
   -5.4728    0.0644  -21.7843 N   0  0  0  0  0  0  0  0  0  0  0  0
   -6.7185    0.7484  -22.2640 C   0  0  0  0  0  0  0  0  0  0  0  0
   -6.9667    2.2277  -22.2668 O   0  0  0  0  0  0  0  0  0  0  0  0
   -7.6726   -0.3065  -22.7403 C   0  0  0  0  0  0  0  0  0  0  0  0
   -8.1980    1.0928  -22.8659 C   0  0  0  0  0  0  0  0  0  0  0  0
   -9.5677    1.3319  -23.4287 N   0  0  0  0  0  0  0  0  0  0  0  0
  -10.4120    0.1717  -23.8659 C   0  0  0  0  0  0  0  0  0  0  0  0
  -11.7817    0.4109  -24.4287 O   0  0  0  0  0  0  0  0  0  0  0  0
   -9.8866   -1.2277  -23.7403 C   0  0  0  0  0  0  0  0  0  0  0  0
  -10.7308   -2.3878  -24.1775 C   0  0  0  0  0  0  0  0  0  0  0  0
  -10.2054   -3.7871  -24.0518 C   0  0  0  0  0  0  0  0  0  0  0  0
   -8.8357   -4.0263  -23.4890 C   0  0  0  0  0  0  0  0  0  0  0  0
   -8.3103   -5.4257  -23.3634 F   0  0  0  0  0  0  0  0  0  0  0  0
   -7.9914   -2.8661  -23.0519 C   0  0  0  0  0  0  0  0  0  0  0  0
   -8.5169   -1.4668  -23.1775 C   0  0  0  0  0  0  0  0  0  0  0  0
   -4.2565    0.7395  -21.2233 C   0  0  0  0  0  0  0  0  0  0  0  0
   -4.2562    1.2264  -19.8046 C   0  0  0  0  0  0  0  0  0  0  0  0
   -3.0399    1.9016  -19.2436 N   0  0  0  0  0  0  0  0  0  0  0  0
   -1.8239    2.0898  -20.1013 C   0  0  0  0  0  0  0  0  0  0  0  0
   -1.8241    1.6029  -21.5201 C   0  0  0  0  0  0  0  0  0  0  0  0
   -0.6080    1.7911  -22.3778 C   0  0  0  0  0  0  0  0  0  0  0  0
   -0.6083    1.3041  -23.7966 C   0  0  0  0  0  0  0  0  0  0  0  0
   -1.8246    0.6290  -24.3575 C   0  0  0  0  0  0  0  0  0  0  0  0
   -3.0406    0.4408  -23.4998 C   0  0  0  0  0  0  0  0  0  0  0  0
   -3.0404    0.9277  -22.0811 C   0  0  0  0  0  0  0  0  0  0  0  0
  -10.0931    2.7313  -23.5544 C   0  0  0  0  0  0  0  0  0  0  0  0
  -11.5671    2.9908  -23.4543 C   0  0  0  0  0  0  0  0  0  0  0  0
  -12.4348    2.7003  -22.2657 C   0  0  0  0  0  0  0  0  0  0  0  0
  -13.8361    3.1163  -22.6021 O   0  0  0  0  0  0  0  0  0  0  0  0
  -13.8345    3.6640  -23.9986 C   0  0  0  0  0  0  0  0  0  0  0  0
  -12.4322    3.5864  -24.5252 N   0  0  0  0  0  0  0  0  0  0  0  0
  2  1  1  0  0  0
  2  3  1  0  0  0
  3  4  1  0  0  0
  4 19  1  0  0  0
 19 20  2  0  0  0
 20 21  1  0  0  0
 21 22  2  0  0  0
 22 23  1  0  0  0
 23 24  2  0  0  0
 24 25  1  0  0  0
 25 26  2  0  0  0
 26 27  1  0  0  0
 27 28  2  0  0  0
  4  5  1  0  0  0
  5  6  2  0  0  0
  5  7  1  0  0  0
  7  8  1  0  0  0
  8  9  1  0  0  0
  9 29  1  0  0  0
 29 30  1  0  0  0
 30 31  2  0  0  0
 31 32  1  0  0  0
 32 33  1  0  0  0
 33 34  2  0  0  0
  9 10  1  0  0  0
 10 11  2  0  0  0
 10 12  1  0  0  0
 12 13  2  0  0  0
 13 14  1  0  0  0
 14 15  2  0  0  0
 15 16  1  0  0  0
 15 17  1  0  0  0
 17 18  2  0  0  0
  7  2  1  0  0  0
 34 30  1  0  0  0
 18 12  1  0  0  0
 28 19  1  0  0  0
 18  7  1  0  0  0
 28 23  1  0  0  0
M  END
> <minimizedAffinity>
-7.81976

> <CNNscore>
0.3534494638

> <CNNaffinity>
6.1792140007

> <CNN_VS>
2.1840398312

> <CNNaffinity_variance>
0.1699201465

$$$$



 34 39  0  0  0  0  0  0  0  0999 V2000
   -6.0881    1.6467  -26.8237 C   0  0  0  0  0  0  0  0  0  0  0  0
   -6.7858    1.5572  -25.4988 C   0  0  0  0  0  0  0  0  0  0  0  0
   -8.2781    1.5375  -25.6498 C   0  0  0  0  0  0  0  0  0  0  0  0
   -8.8815    1.4472  -24.2795 N   0  0  0  0  0  0  0  0  0  0  0  0
   -7.7621    1.4112  -23.2816 C   0  0  0  0  0  0  0  0  0  0  0  0
   -7.9118    1.3227  -21.7917 O   0  0  0  0  0  0  0  0  0  0  0  0
   -6.4669    1.4792  -24.0352 C   0  0  0  0  0  0  0  0  0  0  0  0
   -6.3030    1.3967  -22.5465 C   0  0  0  0  0  0  0  0  0  0  0  0
   -4.9300    1.3881  -21.9425 N   0  0  0  0  0  0  0  0  0  0  0  0
   -3.7210    1.4620  -22.8271 C   0  0  0  0  0  0  0  0  0  0  0  0
   -2.3480    1.4534  -22.2231 O   0  0  0  0  0  0  0  0  0  0  0  0
   -3.8849    1.5445  -24.3159 C   0  0  0  0  0  0  0  0  0  0  0  0
   -2.6758    1.6184  -25.2006 C   0  0  0  0  0  0  0  0  0  0  0  0
   -2.8398    1.7008  -26.6893 C   0  0  0  0  0  0  0  0  0  0  0  0
   -4.2128    1.7094  -27.2933 C   0  0  0  0  0  0  0  0  0  0  0  0
   -4.3767    1.7919  -28.7821 F   0  0  0  0  0  0  0  0  0  0  0  0
   -5.4218    1.6355  -26.4087 C   0  0  0  0  0  0  0  0  0  0  0  0
   -5.2579    1.5531  -24.9200 C   0  0  0  0  0  0  0  0  0  0  0  0
  -10.3469    1.4011  -23.9627 C   0  0  0  0  0  0  0  0  0  0  0  0
  -11.0228    0.0825  -23.7300 C   0  0  0  0  0  0  0  0  0  0  0  0
  -12.4882    0.0364  -23.4132 N   0  0  0  0  0  0  0  0  0  0  0  0
  -13.2777    1.3090  -23.3291 C   0  0  0  0  0  0  0  0  0  0  0  0
  -12.6018    2.6277  -23.5618 C   0  0  0  0  0  0  0  0  0  0  0  0
  -13.3914    3.9004  -23.4777 C   0  0  0  0  0  0  0  0  0  0  0  0
  -12.7154    5.2190  -23.7105 C   0  0  0  0  0  0  0  0  0  0  0  0
  -11.2501    5.2651  -24.0273 C   0  0  0  0  0  0  0  0  0  0  0  0
  -10.4605    3.9925  -24.1114 C   0  0  0  0  0  0  0  0  0  0  0  0
  -11.1364    2.6738  -23.8787 C   0  0  0  0  0  0  0  0  0  0  0  0
   -4.7661    1.3056  -20.4537 C   0  0  0  0  0  0  0  0  0  0  0  0
   -5.1201    0.0409  -19.7291 C   0  0  0  0  0  0  0  0  0  0  0  0
   -5.3701   -0.0908  -18.2560 C   0  0  0  0  0  0  0  0  0  0  0  0
   -5.6907   -1.5273  -17.9668 O   0  0  0  0  0  0  0  0  0  0  0  0
   -5.6388   -2.2835  -19.2613 C   0  0  0  0  0  0  0  0  0  0  0  0
   -5.2861   -1.3143  -20.3504 N   0  0  0  0  0  0  0  0  0  0  0  0
  2  1  1  0  0  0
  2  3  1  0  0  0
  3  4  1  0  0  0
  4 19  1  0  0  0
 19 20  2  0  0  0
 20 21  1  0  0  0
 21 22  2  0  0  0
 22 23  1  0  0  0
 23 24  2  0  0  0
 24 25  1  0  0  0
 25 26  2  0  0  0
 26 27  1  0  0  0
 27 28  2  0  0  0
  4  5  1  0  0  0
  5  6  2  0  0  0
  5  7  1  0  0  0
  7  8  1  0  0  0
  8  9  1  0  0  0
  9 29  1  0  0  0
 29 30  1  0  0  0
 30 31  2  0  0  0
 31 32  1  0  0  0
 32 33  1  0  0  0
 33 34  2  0  0  0
  9 10  1  0  0  0
 10 11  2  0  0  0
 10 12  1  0  0  0
 12 13  2  0  0  0
 13 14  1  0  0  0
 14 15  2  0  0  0
 15 16  1  0  0  0
 15 17  1  0  0  0
 17 18  2  0  0  0
  7  2  1  0  0  0
 34 30  1  0  0  0
 18 12  1  0  0  0
 28 19  1  0  0  0
 18  7  1  0  0  0
 28 23  1  0  0  0
M  END
> <minimizedAffinity>
-7.56881

> <CNNscore>
0.3080152273

> <CNNaffinity>
5.7685732841

> <CNN_VS>
1.7768083811

> <CNNaffinity_variance>
0.1087659970

$$$$



 34 39  0  0  0  0  0  0  0  0999 V2000
   -9.5963   -4.8568  -25.4769 C   0  0  0  0  0  0  0  0  0  0  0  0
   -9.5119   -3.7010  -24.5245 C   0  0  0  0  0  0  0  0  0  0  0  0
  -10.6136   -2.7078  -24.7473 C   0  0  0  0  0  0  0  0  0  0  0  0
  -10.4442   -1.5970  -23.7536 N   0  0  0  0  0  0  0  0  0  0  0  0
   -9.2377   -1.9038  -22.9167 C   0  0  0  0  0  0  0  0  0  0  0  0
   -8.7016   -1.0585  -21.7995 O   0  0  0  0  0  0  0  0  0  0  0  0
   -8.6615   -3.2041  -23.3931 C   0  0  0  0  0  0  0  0  0  0  0  0
   -7.9080   -2.5839  -22.2541 C   0  0  0  0  0  0  0  0  0  0  0  0
   -6.6946   -3.2674  -21.6970 N   0  0  0  0  0  0  0  0  0  0  0  0
   -6.2346   -4.5711  -22.2790 C   0  0  0  0  0  0  0  0  0  0  0  0
   -5.0211   -5.2545  -21.7219 O   0  0  0  0  0  0  0  0  0  0  0  0
   -6.9880   -5.1914  -23.4181 C   0  0  0  0  0  0  0  0  0  0  0  0
   -6.5281   -6.4950  -24.0001 C   0  0  0  0  0  0  0  0  0  0  0  0
   -7.2815   -7.1153  -25.1392 C   0  0  0  0  0  0  0  0  0  0  0  0
   -8.4950   -6.4318  -25.6963 C   0  0  0  0  0  0  0  0  0  0  0  0
   -9.2485   -7.0521  -26.8354 F   0  0  0  0  0  0  0  0  0  0  0  0
   -8.9550   -5.1281  -25.1143 C   0  0  0  0  0  0  0  0  0  0  0  0
   -8.2015   -4.5079  -23.9752 C   0  0  0  0  0  0  0  0  0  0  0  0
  -11.3263   -0.3911  -23.6202 C   0  0  0  0  0  0  0  0  0  0  0  0
  -12.7633   -0.5534  -23.2221 C   0  0  0  0  0  0  0  0  0  0  0  0
  -13.6454    0.6524  -23.0887 N   0  0  0  0  0  0  0  0  0  0  0  0
  -13.0904    2.0206  -23.3534 C   0  0  0  0  0  0  0  0  0  0  0  0
  -11.6533    2.1829  -23.7514 C   0  0  0  0  0  0  0  0  0  0  0  0
  -11.0983    3.5512  -24.0161 C   0  0  0  0  0  0  0  0  0  0  0  0
   -9.6612    3.7134  -24.4141 C   0  0  0  0  0  0  0  0  0  0  0  0
   -8.7792    2.5075  -24.5475 C   0  0  0  0  0  0  0  0  0  0  0  0
   -9.3342    1.1394  -24.2829 C   0  0  0  0  0  0  0  0  0  0  0  0
  -10.7712    0.9770  -23.8848 C   0  0  0  0  0  0  0  0  0  0  0  0
   -5.9411   -2.6471  -20.5578 C   0  0  0  0  0  0  0  0  0  0  0  0
   -5.2786   -1.3131  -20.7348 C   0  0  0  0  0  0  0  0  0  0  0  0
   -4.7250   -0.7668  -22.0175 C   0  0  0  0  0  0  0  0  0  0  0  0
   -4.1576    0.5928  -21.7357 O   0  0  0  0  0  0  0  0  0  0  0  0
   -4.3605    0.8869  -20.2788 C   0  0  0  0  0  0  0  0  0  0  0  0
   -5.0533   -0.2910  -19.6603 N   0  0  0  0  0  0  0  0  0  0  0  0
  2  1  1  0  0  0
  2  3  1  0  0  0
  3  4  1  0  0  0
  4 19  1  0  0  0
 19 20  2  0  0  0
 20 21  1  0  0  0
 21 22  2  0  0  0
 22 23  1  0  0  0
 23 24  2  0  0  0
 24 25  1  0  0  0
 25 26  2  0  0  0
 26 27  1  0  0  0
 27 28  2  0  0  0
  4  5  1  0  0  0
  5  6  2  0  0  0
  5  7  1  0  0  0
  7  8  1  0  0  0
  8  9  1  0  0  0
  9 29  1  0  0  0
 29 30  1  0  0  0
 30 31  2  0  0  0
 31 32  1  0  0  0
 32 33  1  0  0  0
 33 34  2  0  0  0
  9 10  1  0  0  0
 10 11  2  0  0  0
 10 12  1  0  0  0
 12 13  2  0  0  0
 13 14  1  0  0  0
 14 15  2  0  0  0
 15 16  1  0  0  0
 15 17  1  0  0  0
 17 18  2  0  0  0
  7  2  1  0  0  0
 34 30  1  0  0  0
 18 12  1  0  0  0
 28 19  1  0  0  0
 18  7  1  0  0  0
 28 23  1  0  0  0
M  END
> <minimizedAffinity>
-8.17424

> <CNNscore>
0.2899612188

> <CNNaffinity>
6.2549209595

> <CNN_VS>
1.8136844635

> <CNNaffinity_variance>
0.1374497116

$$$$



 34 39  0  0  0  0  0  0  0  0999 V2000
  -11.1256   -2.0936  -24.1913 C   0  0  0  0  0  0  0  0  0  0  0  0
  -10.6828   -0.7078  -23.8258 C   0  0  0  0  0  0  0  0  0  0  0  0
  -11.8169    0.2732  -23.8655 C   0  0  0  0  0  0  0  0  0  0  0  0
  -11.2775    1.6209  -23.4876 N   0  0  0  0  0  0  0  0  0  0  0  0
   -9.8101    1.4728  -23.2144 C   0  0  0  0  0  0  0  0  0  0  0  0
   -8.8744    2.5711  -22.8042 O   0  0  0  0  0  0  0  0  0  0  0  0
   -9.4425    0.0336  -23.4235 C   0  0  0  0  0  0  0  0  0  0  0  0
   -8.2915    0.9039  -23.0140 C   0  0  0  0  0  0  0  0  0  0  0  0
   -6.9238    0.3104  -22.8496 N   0  0  0  0  0  0  0  0  0  0  0  0
   -6.7071   -1.1535  -23.0946 C   0  0  0  0  0  0  0  0  0  0  0  0
   -5.3394   -1.7470  -22.9301 O   0  0  0  0  0  0  0  0  0  0  0  0
   -7.8581   -2.0239  -23.5041 C   0  0  0  0  0  0  0  0  0  0  0  0
   -7.6414   -3.4878  -23.7491 C   0  0  0  0  0  0  0  0  0  0  0  0
   -8.7924   -4.3581  -24.1585 C   0  0  0  0  0  0  0  0  0  0  0  0
  -10.1601   -3.7645  -24.3230 C   0  0  0  0  0  0  0  0  0  0  0  0
  -11.3111   -4.6349  -24.7324 F   0  0  0  0  0  0  0  0  0  0  0  0
  -10.3768   -2.3006  -24.0780 C   0  0  0  0  0  0  0  0  0  0  0  0
   -9.2258   -1.4303  -23.6685 C   0  0  0  0  0  0  0  0  0  0  0  0
  -12.0669    2.8932  -23.3985 C   0  0  0  0  0  0  0  0  0  0  0  0
  -13.0826    3.0710  -22.3092 C   0  0  0  0  0  0  0  0  0  0  0  0
  -13.8720    4.3433  -22.2201 N   0  0  0  0  0  0  0  0  0  0  0  0
  -13.6457    5.4379  -23.2204 C   0  0  0  0  0  0  0  0  0  0  0  0
  -12.6300    5.2601  -24.3098 C   0  0  0  0  0  0  0  0  0  0  0  0
  -12.4037    6.3548  -25.3102 C   0  0  0  0  0  0  0  0  0  0  0  0
  -11.3880    6.1769  -26.3996 C   0  0  0  0  0  0  0  0  0  0  0  0
  -10.5986    4.9046  -26.4886 C   0  0  0  0  0  0  0  0  0  0  0  0
  -10.8249    3.8100  -25.4883 C   0  0  0  0  0  0  0  0  0  0  0  0
  -11.8406    3.9878  -24.3989 C   0  0  0  0  0  0  0  0  0  0  0  0
   -5.7728    1.1808  -22.4401 C   0  0  0  0  0  0  0  0  0  0  0  0
   -5.2016    1.0677  -21.0577 C   0  0  0  0  0  0  0  0  0  0  0  0
   -4.0525    1.8617  -20.5109 C   0  0  0  0  0  0  0  0  0  0  0  0
   -3.8200    1.4255  -19.0947 O   0  0  0  0  0  0  0  0  0  0  0  0
   -4.8255    0.3619  -18.7662 C   0  0  0  0  0  0  0  0  0  0  0  0
   -5.6794    0.1408  -19.9794 N   0  0  0  0  0  0  0  0  0  0  0  0
  2  1  1  0  0  0
  2  3  1  0  0  0
  3  4  1  0  0  0
  4 19  1  0  0  0
 19 20  2  0  0  0
 20 21  1  0  0  0
 21 22  2  0  0  0
 22 23  1  0  0  0
 23 24  2  0  0  0
 24 25  1  0  0  0
 25 26  2  0  0  0
 26 27  1  0  0  0
 27 28  2  0  0  0
  4  5  1  0  0  0
  5  6  2  0  0  0
  5  7  1  0  0  0
  7  8  1  0  0  0
  8  9  1  0  0  0
  9 29  1  0  0  0
 29 30  1  0  0  0
 30 31  2  0  0  0
 31 32  1  0  0  0
 32 33  1  0  0  0
 33 34  2  0  0  0
  9 10  1  0  0  0
 10 11  2  0  0  0
 10 12  1  0  0  0
 12 13  2  0  0  0
 13 14  1  0  0  0
 14 15  2  0  0  0
 15 16  1  0  0  0
 15 17  1  0  0  0
 17 18  2  0  0  0
  7  2  1  0  0  0
 34 30  1  0  0  0
 18 12  1  0  0  0
 28 19  1  0  0  0
 18  7  1  0  0  0
 28 23  1  0  0  0
M  END
> <minimizedAffinity>
-8.09497

> <CNNscore>
0.2863164544

> <CNNaffinity>
6.1527299881

> <CNN_VS>
1.7616277933

> <CNNaffinity_variance>
0.1588236839

$$$$
