


 38 42  0  0  0  0  0  0  0  0999 V2000
   -7.5912   -1.4713  -23.0507 N   0  0  0  0  0  0  0  0  0  0  0  0
   -7.8077   -0.0072  -23.2952 C   0  0  0  0  0  0  0  0  0  0  0  0
   -9.2014    0.5414  -23.3771 C   0  0  0  0  0  0  0  0  0  0  0  0
  -10.5294    1.2306  -23.4831 C   0  0  0  0  0  0  0  0  0  0  0  0
  -11.7166    0.9767  -23.4316 O   0  0  0  0  0  0  0  0  0  0  0  0
  -10.2768    2.6884  -23.7299 N   0  0  0  0  0  0  0  0  0  0  0  0
   -8.7926    2.9002  -23.7765 C   0  0  0  0  0  0  0  0  0  0  0  0
   -8.1279    1.5733  -23.5584 C   0  0  0  0  0  0  0  0  0  0  0  0
  -10.3786   -0.3741  -23.2145 C   0  0  0  0  0  0  0  0  0  0  0  0
  -11.7722    0.1745  -23.2964 C   0  0  0  0  0  0  0  0  0  0  0  0
  -12.9493   -0.7409  -23.1339 C   0  0  0  0  0  0  0  0  0  0  0  0
  -14.3430   -0.1923  -23.2158 Cl  0  0  0  0  0  0  0  0  0  0  0  0
  -12.7327   -2.2049  -22.8895 C   0  0  0  0  0  0  0  0  0  0  0  0
  -11.3390   -2.7535  -22.8075 C   0  0  0  0  0  0  0  0  0  0  0  0
  -10.1620   -1.8381  -22.9701 C   0  0  0  0  0  0  0  0  0  0  0  0
   -8.7682   -2.3867  -22.8882 C   0  0  0  0  0  0  0  0  0  0  0  0
   -8.5517   -3.8507  -22.6438 O   0  0  0  0  0  0  0  0  0  0  0  0
  -11.3245    3.7483  -23.9003 C   0  0  0  0  0  0  0  0  0  0  0  0
  -12.1977    4.1327  -22.7428 C   0  0  0  0  0  0  0  0  0  0  0  0
  -13.2453    5.1926  -22.9132 N   0  0  0  0  0  0  0  0  0  0  0  0
  -13.4198    5.8681  -24.2411 C   0  0  0  0  0  0  0  0  0  0  0  0
  -12.5465    5.4837  -25.3986 C   0  0  0  0  0  0  0  0  0  0  0  0
  -12.7210    6.1592  -26.7265 C   0  0  0  0  0  0  0  0  0  0  0  0
  -11.8478    5.7747  -27.8839 C   0  0  0  0  0  0  0  0  0  0  0  0
  -10.8001    4.7148  -27.7135 C   0  0  0  0  0  0  0  0  0  0  0  0
  -10.6257    4.0393  -26.3857 C   0  0  0  0  0  0  0  0  0  0  0  0
  -11.4989    4.4238  -25.2282 C   0  0  0  0  0  0  0  0  0  0  0  0
   -6.1974   -2.0198  -22.9688 C   0  0  0  0  0  0  0  0  0  0  0  0
   -5.5320   -5.6694  -21.5589 C   0  0  0  0  0  0  0  0  0  0  0  0
   -5.8437   -4.5526  -22.5105 N   0  0  0  0  0  0  0  0  0  0  0  0
   -5.8857   -3.1367  -22.0172 C   0  0  0  0  0  0  0  0  0  0  0  0
   -5.6161   -2.8375  -20.5722 O   0  0  0  0  0  0  0  0  0  0  0  0
   -6.0207   -4.7489  -23.4589 H   0  0  0  0  0  0  0  0  0  0  0  0
   -6.6494    1.3223  -23.5271 C   0  0  0  0  0  0  0  0  0  0  0  0
   -5.7781    2.0907  -22.5784 O   0  0  0  0  0  0  0  0  0  0  0  0
   -4.7395    1.3749  -21.7666 C   0  0  0  0  0  0  0  0  0  0  0  0
   -5.1276    0.6851  -20.4924 C   0  0  0  0  0  0  0  0  0  0  0  0
   -3.3128    1.3489  -22.2290 C   0  0  0  0  0  0  0  0  0  0  0  0
 29 30  1  0  0  0
 30 31  1  0  0  0
 31 32  2  0  0  0
 31 28  1  0  0  0
 28  1  1  0  0  0
  1  2  1  0  0  0
  3  2  1  0  0  0
  3  4  1  0  0  0
  4  5  2  0  0  0
  4  6  1  0  0  0
  6 18  1  0  0  0
 18 19  2  0  0  0
 19 20  1  0  0  0
 20 21  2  0  0  0
 21 22  1  0  0  0
 22 23  2  0  0  0
 23 24  1  0  0  0
 24 25  2  0  0  0
 25 26  1  0  0  0
 26 27  2  0  0  0
  6  7  1  0  0  0
  7  8  1  0  0  0
  8 34  1  0  0  0
 34 35  1  0  0  0
 35 36  1  0  0  0
 36 37  1  0  0  0
 36 38  1  0  0  0
  3  9  1  0  0  0
  9 10  2  0  0  0
 10 11  1  0  0  0
 11 12  1  0  0  0
 11 13  2  0  0  0
 13 14  1  0  0  0
 14 15  2  0  0  0
 15 16  1  0  0  0
 16 17  2  0  0  0
 16  1  1  0  0  0
  8  3  1  0  0  0
 15  9  1  0  0  0
 27 18  1  0  0  0
 27 22  1  0  0  0
 30 33  1  0  0  0
M  END
> <minimizedAffinity>
-6.87374

> <CNNscore>
0.6332504749

> <CNNaffinity>
6.8286871910

> <CNN_VS>
4.3242692947

> <CNNaffinity_variance>
0.0206340291

$$$$



 38 42  0  0  0  0  0  0  0  0999 V2000
  -11.2951    3.7772  -24.0132 N   0  0  0  0  0  0  0  0  0  0  0  0
   -9.9647    3.0851  -23.9837 C   0  0  0  0  0  0  0  0  0  0  0  0
   -9.8941    1.6054  -23.7483 C   0  0  0  0  0  0  0  0  0  0  0  0
   -9.6676    0.1395  -23.5249 C   0  0  0  0  0  0  0  0  0  0  0  0
  -10.2976   -0.8792  -23.3206 O   0  0  0  0  0  0  0  0  0  0  0  0
   -8.1901   -0.1143  -23.5756 N   0  0  0  0  0  0  0  0  0  0  0  0
   -7.5034    1.1948  -23.8305 C   0  0  0  0  0  0  0  0  0  0  0  0
   -8.5566    2.2575  -23.9372 C   0  0  0  0  0  0  0  0  0  0  0  0
  -11.1540    0.8178  -23.5423 C   0  0  0  0  0  0  0  0  0  0  0  0
  -11.0835   -0.6619  -23.3069 C   0  0  0  0  0  0  0  0  0  0  0  0
  -12.3433   -1.4495  -23.1009 C   0  0  0  0  0  0  0  0  0  0  0  0
  -12.2728   -2.9293  -22.8655 Cl  0  0  0  0  0  0  0  0  0  0  0  0
  -13.6738   -0.7573  -23.1303 C   0  0  0  0  0  0  0  0  0  0  0  0
  -13.7443    0.7224  -23.3657 C   0  0  0  0  0  0  0  0  0  0  0  0
  -12.4845    1.5099  -23.5717 C   0  0  0  0  0  0  0  0  0  0  0  0
  -12.5550    2.9897  -23.8072 C   0  0  0  0  0  0  0  0  0  0  0  0
  -13.8854    3.6819  -23.8366 O   0  0  0  0  0  0  0  0  0  0  0  0
   -7.5174   -1.4437  -23.4020 C   0  0  0  0  0  0  0  0  0  0  0  0
   -6.9619   -1.8342  -22.0645 C   0  0  0  0  0  0  0  0  0  0  0  0
   -6.2892   -3.1636  -21.8909 N   0  0  0  0  0  0  0  0  0  0  0  0
   -6.1720   -4.1025  -23.0548 C   0  0  0  0  0  0  0  0  0  0  0  0
   -6.7275   -3.7120  -24.3923 C   0  0  0  0  0  0  0  0  0  0  0  0
   -6.6103   -4.6509  -25.5563 C   0  0  0  0  0  0  0  0  0  0  0  0
   -7.1658   -4.2603  -26.8938 C   0  0  0  0  0  0  0  0  0  0  0  0
   -7.8385   -2.9309  -27.0674 C   0  0  0  0  0  0  0  0  0  0  0  0
   -7.9557   -1.9920  -25.9035 C   0  0  0  0  0  0  0  0  0  0  0  0
   -7.4002   -2.3825  -24.5660 C   0  0  0  0  0  0  0  0  0  0  0  0
  -11.3657    5.2570  -24.2486 C   0  0  0  0  0  0  0  0  0  0  0  0
  -13.7800    6.4368  -27.1691 C   0  0  0  0  0  0  0  0  0  0  0  0
  -13.3074    5.9094  -25.8468 N   0  0  0  0  0  0  0  0  0  0  0  0
  -11.8383    5.7844  -25.5709 C   0  0  0  0  0  0  0  0  0  0  0  0
  -10.8417    6.1867  -26.6174 O   0  0  0  0  0  0  0  0  0  0  0  0
  -13.9614    5.6454  -25.1599 H   0  0  0  0  0  0  0  0  0  0  0  0
   -8.3147    3.7164  -24.1887 C   0  0  0  0  0  0  0  0  0  0  0  0
   -7.0160    4.3433  -23.7761 O   0  0  0  0  0  0  0  0  0  0  0  0
   -6.8190    5.8235  -23.9184 C   0  0  0  0  0  0  0  0  0  0  0  0
   -5.4353    6.4020  -23.8917 C   0  0  0  0  0  0  0  0  0  0  0  0
   -8.0058    6.7252  -24.0873 C   0  0  0  0  0  0  0  0  0  0  0  0
 29 30  1  0  0  0
 30 31  1  0  0  0
 31 32  2  0  0  0
 31 28  1  0  0  0
 28  1  1  0  0  0
  1  2  1  0  0  0
  3  2  1  0  0  0
  3  4  1  0  0  0
  4  5  2  0  0  0
  4  6  1  0  0  0
  6 18  1  0  0  0
 18 19  2  0  0  0
 19 20  1  0  0  0
 20 21  2  0  0  0
 21 22  1  0  0  0
 22 23  2  0  0  0
 23 24  1  0  0  0
 24 25  2  0  0  0
 25 26  1  0  0  0
 26 27  2  0  0  0
  6  7  1  0  0  0
  7  8  1  0  0  0
  8 34  1  0  0  0
 34 35  1  0  0  0
 35 36  1  0  0  0
 36 37  1  0  0  0
 36 38  1  0  0  0
  3  9  1  0  0  0
  9 10  2  0  0  0
 10 11  1  0  0  0
 11 12  1  0  0  0
 11 13  2  0  0  0
 13 14  1  0  0  0
 14 15  2  0  0  0
 15 16  1  0  0  0
 16 17  2  0  0  0
 16  1  1  0  0  0
  8  3  1  0  0  0
 15  9  1  0  0  0
 27 18  1  0  0  0
 27 22  1  0  0  0
 30 33  1  0  0  0
M  END
> <minimizedAffinity>
-6.73570

> <CNNscore>
0.4880426824

> <CNNaffinity>
6.7847757339

> <CNN_VS>
3.3112602234

> <CNNaffinity_variance>
0.3157321215

$$$$



 38 42  0  0  0  0  0  0  0  0999 V2000
   -7.0387   -1.1044  -22.1601 N   0  0  0  0  0  0  0  0  0  0  0  0
   -7.1161    0.2093  -22.8801 C   0  0  0  0  0  0  0  0  0  0  0  0
   -8.4228    0.6766  -23.4495 C   0  0  0  0  0  0  0  0  0  0  0  0
   -9.6527    1.2717  -24.0683 C   0  0  0  0  0  0  0  0  0  0  0  0
  -10.8315    1.0208  -24.2230 O   0  0  0  0  0  0  0  0  0  0  0  0
   -9.2740    2.5887  -24.6783 N   0  0  0  0  0  0  0  0  0  0  0  0
   -7.8098    2.8075  -24.4365 C   0  0  0  0  0  0  0  0  0  0  0  0
   -7.2838    1.6258  -23.6771 C   0  0  0  0  0  0  0  0  0  0  0  0
   -9.6521   -0.1697  -23.2989 C   0  0  0  0  0  0  0  0  0  0  0  0
  -10.9587    0.2976  -23.8683 C   0  0  0  0  0  0  0  0  0  0  0  0
  -12.1879   -0.5487  -23.7177 C   0  0  0  0  0  0  0  0  0  0  0  0
  -13.4947   -0.0814  -24.2871 Cl  0  0  0  0  0  0  0  0  0  0  0  0
  -12.1105   -1.8623  -22.9977 C   0  0  0  0  0  0  0  0  0  0  0  0
  -10.8039   -2.3297  -22.4283 C   0  0  0  0  0  0  0  0  0  0  0  0
   -9.5746   -1.4834  -22.5789 C   0  0  0  0  0  0  0  0  0  0  0  0
   -8.2679   -1.9507  -22.0096 C   0  0  0  0  0  0  0  0  0  0  0  0
   -8.1905   -3.2643  -21.2896 O   0  0  0  0  0  0  0  0  0  0  0  0
  -10.1972    3.5228  -25.4029 C   0  0  0  0  0  0  0  0  0  0  0  0
  -10.0022    3.7843  -26.8670 C   0  0  0  0  0  0  0  0  0  0  0  0
  -10.9254    4.7184  -27.5916 N   0  0  0  0  0  0  0  0  0  0  0  0
  -12.0437    5.3911  -26.8521 C   0  0  0  0  0  0  0  0  0  0  0  0
  -12.2387    5.1296  -25.3879 C   0  0  0  0  0  0  0  0  0  0  0  0
  -13.3571    5.8024  -24.6484 C   0  0  0  0  0  0  0  0  0  0  0  0
  -13.5520    5.5409  -23.1842 C   0  0  0  0  0  0  0  0  0  0  0  0
  -12.6288    4.6068  -22.4597 C   0  0  0  0  0  0  0  0  0  0  0  0
  -11.5105    3.9341  -23.1992 C   0  0  0  0  0  0  0  0  0  0  0  0
  -11.3155    4.1955  -24.6633 C   0  0  0  0  0  0  0  0  0  0  0  0
   -5.7319   -1.5717  -21.5908 C   0  0  0  0  0  0  0  0  0  0  0  0
   -5.5146   -5.5207  -21.9189 C   0  0  0  0  0  0  0  0  0  0  0  0
   -5.7023   -4.0767  -22.2790 N   0  0  0  0  0  0  0  0  0  0  0  0
   -5.5443   -3.0157  -21.2306 C   0  0  0  0  0  0  0  0  0  0  0  0
   -5.1988   -3.3986  -19.8221 O   0  0  0  0  0  0  0  0  0  0  0  0
   -5.9290   -3.8254  -23.2035 H   0  0  0  0  0  0  0  0  0  0  0  0
   -5.8674    1.4280  -23.2247 C   0  0  0  0  0  0  0  0  0  0  0  0
   -5.3673    2.1296  -21.9969 O   0  0  0  0  0  0  0  0  0  0  0  0
   -4.0247    1.7790  -21.4270 C   0  0  0  0  0  0  0  0  0  0  0  0
   -3.8746    1.5394  -19.9539 C   0  0  0  0  0  0  0  0  0  0  0  0
   -2.8324    1.6679  -22.3303 C   0  0  0  0  0  0  0  0  0  0  0  0
 29 30  1  0  0  0
 30 31  1  0  0  0
 31 32  2  0  0  0
 31 28  1  0  0  0
 28  1  1  0  0  0
  1  2  1  0  0  0
  3  2  1  0  0  0
  3  4  1  0  0  0
  4  5  2  0  0  0
  4  6  1  0  0  0
  6 18  1  0  0  0
 18 19  2  0  0  0
 19 20  1  0  0  0
 20 21  2  0  0  0
 21 22  1  0  0  0
 22 23  2  0  0  0
 23 24  1  0  0  0
 24 25  2  0  0  0
 25 26  1  0  0  0
 26 27  2  0  0  0
  6  7  1  0  0  0
  7  8  1  0  0  0
  8 34  1  0  0  0
 34 35  1  0  0  0
 35 36  1  0  0  0
 36 37  1  0  0  0
 36 38  1  0  0  0
  3  9  1  0  0  0
  9 10  2  0  0  0
 10 11  1  0  0  0
 11 12  1  0  0  0
 11 13  2  0  0  0
 13 14  1  0  0  0
 14 15  2  0  0  0
 15 16  1  0  0  0
 16 17  2  0  0  0
 16  1  1  0  0  0
  8  3  1  0  0  0
 15  9  1  0  0  0
 27 18  1  0  0  0
 27 22  1  0  0  0
 30 33  1  0  0  0
M  END
> <minimizedAffinity>
-7.03357

> <CNNscore>
0.4268980920

> <CNNaffinity>
6.4827637672

> <CNN_VS>
2.7674794197

> <CNNaffinity_variance>
0.0704391152

$$$$



 38 42  0  0  0  0  0  0  0  0999 V2000
   -5.3843   -6.1728  -23.5097 N   0  0  0  0  0  0  0  0  0  0  0  0
   -5.9772   -4.9133  -22.9511 C   0  0  0  0  0  0  0  0  0  0  0  0
   -7.0238   -4.1691  -23.7262 C   0  0  0  0  0  0  0  0  0  0  0  0
   -8.0731   -3.3218  -24.3828 C   0  0  0  0  0  0  0  0  0  0  0  0
   -8.7395   -3.2861  -25.3982 O   0  0  0  0  0  0  0  0  0  0  0  0
   -8.3694   -2.1647  -23.4754 N   0  0  0  0  0  0  0  0  0  0  0  0
   -7.5032   -2.2969  -22.2578 C   0  0  0  0  0  0  0  0  0  0  0  0
   -6.6716   -3.5357  -22.4129 C   0  0  0  0  0  0  0  0  0  0  0  0
   -7.4775   -4.6843  -25.0599 C   0  0  0  0  0  0  0  0  0  0  0  0
   -8.5240   -3.9401  -25.8350 C   0  0  0  0  0  0  0  0  0  0  0  0
   -8.9776   -4.4554  -27.1687 C   0  0  0  0  0  0  0  0  0  0  0  0
  -10.0243   -3.7111  -27.9438 Cl  0  0  0  0  0  0  0  0  0  0  0  0
   -8.3847   -5.7149  -27.7272 C   0  0  0  0  0  0  0  0  0  0  0  0
   -7.3381   -6.4591  -26.9522 C   0  0  0  0  0  0  0  0  0  0  0  0
   -6.8845   -5.9438  -25.6185 C   0  0  0  0  0  0  0  0  0  0  0  0
   -5.8379   -6.6881  -24.8434 C   0  0  0  0  0  0  0  0  0  0  0  0
   -5.2449   -7.9476  -25.4020 O   0  0  0  0  0  0  0  0  0  0  0  0
   -9.3582   -1.0681  -23.7391 C   0  0  0  0  0  0  0  0  0  0  0  0
   -8.9056    0.2131  -24.3745 C   0  0  0  0  0  0  0  0  0  0  0  0
   -9.8944    1.3097  -24.6383 N   0  0  0  0  0  0  0  0  0  0  0  0
  -11.3359    1.1252  -24.2666 C   0  0  0  0  0  0  0  0  0  0  0  0
  -11.7885   -0.1560  -23.6312 C   0  0  0  0  0  0  0  0  0  0  0  0
  -13.2300   -0.3405  -23.2595 C   0  0  0  0  0  0  0  0  0  0  0  0
  -13.6825   -1.6217  -22.6241 C   0  0  0  0  0  0  0  0  0  0  0  0
  -12.6937   -2.7184  -22.3604 C   0  0  0  0  0  0  0  0  0  0  0  0
  -11.2523   -2.5338  -22.7320 C   0  0  0  0  0  0  0  0  0  0  0  0
  -10.7996   -1.2526  -23.3674 C   0  0  0  0  0  0  0  0  0  0  0  0
   -4.3377   -6.9171  -22.7346 C   0  0  0  0  0  0  0  0  0  0  0  0
   -0.7136   -8.4088  -23.3595 C   0  0  0  0  0  0  0  0  0  0  0  0
   -2.0735   -8.1909  -22.7654 N   0  0  0  0  0  0  0  0  0  0  0  0
   -2.9777   -7.1350  -23.3287 C   0  0  0  0  0  0  0  0  0  0  0  0
   -2.5219   -6.2969  -24.4863 O   0  0  0  0  0  0  0  0  0  0  0  0
   -2.3727   -8.7410  -22.0056 H   0  0  0  0  0  0  0  0  0  0  0  0
   -5.6646   -4.0506  -21.4276 C   0  0  0  0  0  0  0  0  0  0  0  0
   -5.3292   -3.2451  -20.2076 O   0  0  0  0  0  0  0  0  0  0  0  0
   -5.4064   -1.7477  -20.2528 C   0  0  0  0  0  0  0  0  0  0  0  0
   -4.6030   -0.9855  -21.2646 C   0  0  0  0  0  0  0  0  0  0  0  0
   -6.2870   -1.0125  -19.2863 C   0  0  0  0  0  0  0  0  0  0  0  0
 29 30  1  0  0  0
 30 31  1  0  0  0
 31 32  2  0  0  0
 31 28  1  0  0  0
 28  1  1  0  0  0
  1  2  1  0  0  0
  3  2  1  0  0  0
  3  4  1  0  0  0
  4  5  2  0  0  0
  4  6  1  0  0  0
  6 18  1  0  0  0
 18 19  2  0  0  0
 19 20  1  0  0  0
 20 21  2  0  0  0
 21 22  1  0  0  0
 22 23  2  0  0  0
 23 24  1  0  0  0
 24 25  2  0  0  0
 25 26  1  0  0  0
 26 27  2  0  0  0
  6  7  1  0  0  0
  7  8  1  0  0  0
  8 34  1  0  0  0
 34 35  1  0  0  0
 35 36  1  0  0  0
 36 37  1  0  0  0
 36 38  1  0  0  0
  3  9  1  0  0  0
  9 10  2  0  0  0
 10 11  1  0  0  0
 11 12  1  0  0  0
 11 13  2  0  0  0
 13 14  1  0  0  0
 14 15  2  0  0  0
 15 16  1  0  0  0
 16 17  2  0  0  0
 16  1  1  0  0  0
  8  3  1  0  0  0
 15  9  1  0  0  0
 27 18  1  0  0  0
 27 22  1  0  0  0
 30 33  1  0  0  0
M  END
> <minimizedAffinity>
-7.47693

> <CNNscore>
0.4176532030

> <CNNaffinity>
6.6148262024

> <CNN_VS>
2.7627034187

> <CNNaffinity_variance>
0.0952822641

$$$$



 38 42  0  0  0  0  0  0  0  0999 V2000
   -6.9632   -0.5987  -22.5534 N   0  0  0  0  0  0  0  0  0  0  0  0
   -7.3188    0.8138  -22.9119 C   0  0  0  0  0  0  0  0  0  0  0  0
   -8.7424    1.1744  -23.2170 C   0  0  0  0  0  0  0  0  0  0  0  0
  -10.1153    1.6818  -23.5453 C   0  0  0  0  0  0  0  0  0  0  0  0
  -11.2577    1.2795  -23.6425 O   0  0  0  0  0  0  0  0  0  0  0  0
  -10.0090    3.1484  -23.8413 N   0  0  0  0  0  0  0  0  0  0  0  0
   -8.5704    3.5475  -23.6960 C   0  0  0  0  0  0  0  0  0  0  0  0
   -7.7876    2.3275  -23.3101 C   0  0  0  0  0  0  0  0  0  0  0  0
   -9.8106    0.1225  -23.1637 C   0  0  0  0  0  0  0  0  0  0  0  0
  -11.2342    0.4831  -23.4688 C   0  0  0  0  0  0  0  0  0  0  0  0
  -12.3022   -0.5687  -23.4155 C   0  0  0  0  0  0  0  0  0  0  0  0
  -13.7260   -0.2081  -23.7206 Cl  0  0  0  0  0  0  0  0  0  0  0  0
  -11.9466   -1.9812  -23.0570 C   0  0  0  0  0  0  0  0  0  0  0  0
  -10.5230   -2.3418  -22.7519 C   0  0  0  0  0  0  0  0  0  0  0  0
   -9.4550   -1.2900  -22.8052 C   0  0  0  0  0  0  0  0  0  0  0  0
   -8.0312   -1.6505  -22.5001 C   0  0  0  0  0  0  0  0  0  0  0  0
   -7.6756   -3.0630  -22.1416 O   0  0  0  0  0  0  0  0  0  0  0  0
  -11.1423    4.0565  -24.2168 C   0  0  0  0  0  0  0  0  0  0  0  0
  -12.0814    4.5599  -23.1610 C   0  0  0  0  0  0  0  0  0  0  0  0
  -13.2147    5.4680  -23.5364 N   0  0  0  0  0  0  0  0  0  0  0  0
  -13.4089    5.8727  -24.9677 C   0  0  0  0  0  0  0  0  0  0  0  0
  -12.4698    5.3693  -26.0234 C   0  0  0  0  0  0  0  0  0  0  0  0
  -12.6640    5.7741  -27.4548 C   0  0  0  0  0  0  0  0  0  0  0  0
  -11.7248    5.2707  -28.5105 C   0  0  0  0  0  0  0  0  0  0  0  0
  -10.5915    4.3626  -28.1350 C   0  0  0  0  0  0  0  0  0  0  0  0
  -10.3973    3.9579  -26.7038 C   0  0  0  0  0  0  0  0  0  0  0  0
  -11.3365    4.4612  -25.6480 C   0  0  0  0  0  0  0  0  0  0  0  0
   -5.5395   -0.9593  -22.2483 C   0  0  0  0  0  0  0  0  0  0  0  0
   -3.5552    1.1901  -19.5664 C   0  0  0  0  0  0  0  0  0  0  0  0
   -4.1749    0.7649  -20.8646 N   0  0  0  0  0  0  0  0  0  0  0  0
   -4.9198   -0.5341  -20.9501 C   0  0  0  0  0  0  0  0  0  0  0  0
   -5.0452   -1.4081  -19.7375 O   0  0  0  0  0  0  0  0  0  0  0  0
   -4.0926    1.3385  -21.6604 H   0  0  0  0  0  0  0  0  0  0  0  0
   -6.3095    2.2706  -23.0611 C   0  0  0  0  0  0  0  0  0  0  0  0
   -5.6679    3.2534  -22.1272 O   0  0  0  0  0  0  0  0  0  0  0  0
   -4.8504    4.3853  -22.6753 C   0  0  0  0  0  0  0  0  0  0  0  0
   -3.3683    4.2272  -22.8439 C   0  0  0  0  0  0  0  0  0  0  0  0
   -5.5150    5.6753  -23.0549 C   0  0  0  0  0  0  0  0  0  0  0  0
 29 30  1  0  0  0
 30 31  1  0  0  0
 31 32  2  0  0  0
 31 28  1  0  0  0
 28  1  1  0  0  0
  1  2  1  0  0  0
  3  2  1  0  0  0
  3  4  1  0  0  0
  4  5  2  0  0  0
  4  6  1  0  0  0
  6 18  1  0  0  0
 18 19  2  0  0  0
 19 20  1  0  0  0
 20 21  2  0  0  0
 21 22  1  0  0  0
 22 23  2  0  0  0
 23 24  1  0  0  0
 24 25  2  0  0  0
 25 26  1  0  0  0
 26 27  2  0  0  0
  6  7  1  0  0  0
  7  8  1  0  0  0
  8 34  1  0  0  0
 34 35  1  0  0  0
 35 36  1  0  0  0
 36 37  1  0  0  0
 36 38  1  0  0  0
  3  9  1  0  0  0
  9 10  2  0  0  0
 10 11  1  0  0  0
 11 12  1  0  0  0
 11 13  2  0  0  0
 13 14  1  0  0  0
 14 15  2  0  0  0
 15 16  1  0  0  0
 16 17  2  0  0  0
 16  1  1  0  0  0
  8  3  1  0  0  0
 15  9  1  0  0  0
 27 18  1  0  0  0
 27 22  1  0  0  0
 30 33  1  0  0  0
M  END
> <minimizedAffinity>
-7.30390

> <CNNscore>
0.3421303034

> <CNNaffinity>
6.2969565392

> <CNN_VS>
2.1543796062

> <CNNaffinity_variance>
0.1197156459

$$$$



 38 42  0  0  0  0  0  0  0  0999 V2000
  -11.5454    3.9026  -24.0554 N   0  0  0  0  0  0  0  0  0  0  0  0
  -10.1667    3.3222  -23.9445 C   0  0  0  0  0  0  0  0  0  0  0  0
   -9.9891    1.8570  -23.6769 C   0  0  0  0  0  0  0  0  0  0  0  0
   -9.6568    0.4182  -23.4134 C   0  0  0  0  0  0  0  0  0  0  0  0
  -10.2121   -0.6453  -23.2216 O   0  0  0  0  0  0  0  0  0  0  0  0
   -8.1630    0.2854  -23.3838 N   0  0  0  0  0  0  0  0  0  0  0  0
   -7.5721    1.6421  -23.6289 C   0  0  0  0  0  0  0  0  0  0  0  0
   -8.7007    2.6134  -23.8100 C   0  0  0  0  0  0  0  0  0  0  0  0
  -11.1902    0.9722  -23.5200 C   0  0  0  0  0  0  0  0  0  0  0  0
  -11.0126   -0.4929  -23.2523 C   0  0  0  0  0  0  0  0  0  0  0  0
  -12.2137   -1.3777  -23.0955 C   0  0  0  0  0  0  0  0  0  0  0  0
  -12.0361   -2.8429  -22.8278 Cl  0  0  0  0  0  0  0  0  0  0  0  0
  -13.5924   -0.7972  -23.2063 C   0  0  0  0  0  0  0  0  0  0  0  0
  -13.7700    0.6680  -23.4740 C   0  0  0  0  0  0  0  0  0  0  0  0
  -12.5689    1.5527  -23.6308 C   0  0  0  0  0  0  0  0  0  0  0  0
  -12.7465    3.0179  -23.8985 C   0  0  0  0  0  0  0  0  0  0  0  0
  -14.1252    3.5984  -24.0093 O   0  0  0  0  0  0  0  0  0  0  0  0
   -7.3949   -0.9817  -23.1500 C   0  0  0  0  0  0  0  0  0  0  0  0
   -7.1788   -1.9466  -24.2779 C   0  0  0  0  0  0  0  0  0  0  0  0
   -6.4108   -3.2137  -24.0442 N   0  0  0  0  0  0  0  0  0  0  0  0
   -5.8589   -3.5158  -22.6826 C   0  0  0  0  0  0  0  0  0  0  0  0
   -6.0750   -2.5509  -21.5546 C   0  0  0  0  0  0  0  0  0  0  0  0
   -5.5231   -2.8530  -20.1929 C   0  0  0  0  0  0  0  0  0  0  0  0
   -5.7392   -1.8880  -19.0651 C   0  0  0  0  0  0  0  0  0  0  0  0
   -6.5073   -0.6209  -19.2988 C   0  0  0  0  0  0  0  0  0  0  0  0
   -7.0592   -0.3188  -20.6605 C   0  0  0  0  0  0  0  0  0  0  0  0
   -6.8430   -1.2838  -21.7884 C   0  0  0  0  0  0  0  0  0  0  0  0
  -11.7230    5.3679  -24.3231 C   0  0  0  0  0  0  0  0  0  0  0  0
  -13.9821    6.3844  -27.4235 C   0  0  0  0  0  0  0  0  0  0  0  0
  -13.5786    5.9152  -26.0572 N   0  0  0  0  0  0  0  0  0  0  0  0
  -12.1265    5.8371  -25.6894 C   0  0  0  0  0  0  0  0  0  0  0  0
  -11.0778    6.2284  -26.6881 O   0  0  0  0  0  0  0  0  0  0  0  0
  -14.2669    5.6584  -25.4017 H   0  0  0  0  0  0  0  0  0  0  0  0
   -8.5647    4.0831  -24.0774 C   0  0  0  0  0  0  0  0  0  0  0  0
   -7.2062    4.6865  -24.2779 O   0  0  0  0  0  0  0  0  0  0  0  0
   -6.4145    5.1615  -23.0957 C   0  0  0  0  0  0  0  0  0  0  0  0
   -7.0671    6.0177  -22.0511 C   0  0  0  0  0  0  0  0  0  0  0  0
   -4.9703    4.7804  -22.9581 C   0  0  0  0  0  0  0  0  0  0  0  0
 29 30  1  0  0  0
 30 31  1  0  0  0
 31 32  2  0  0  0
 31 28  1  0  0  0
 28  1  1  0  0  0
  1  2  1  0  0  0
  3  2  1  0  0  0
  3  4  1  0  0  0
  4  5  2  0  0  0
  4  6  1  0  0  0
  6 18  1  0  0  0
 18 19  2  0  0  0
 19 20  1  0  0  0
 20 21  2  0  0  0
 21 22  1  0  0  0
 22 23  2  0  0  0
 23 24  1  0  0  0
 24 25  2  0  0  0
 25 26  1  0  0  0
 26 27  2  0  0  0
  6  7  1  0  0  0
  7  8  1  0  0  0
  8 34  1  0  0  0
 34 35  1  0  0  0
 35 36  1  0  0  0
 36 37  1  0  0  0
 36 38  1  0  0  0
  3  9  1  0  0  0
  9 10  2  0  0  0
 10 11  1  0  0  0
 11 12  1  0  0  0
 11 13  2  0  0  0
 13 14  1  0  0  0
 14 15  2  0  0  0
 15 16  1  0  0  0
 16 17  2  0  0  0
 16  1  1  0  0  0
  8  3  1  0  0  0
 15  9  1  0  0  0
 27 18  1  0  0  0
 27 22  1  0  0  0
 30 33  1  0  0  0
M  END
> <minimizedAffinity>
-7.72507

> <CNNscore>
0.3410272300

> <CNNaffinity>
6.5276703835

> <CNN_VS>
2.2261133194

> <CNNaffinity_variance>
0.0824176893

$$$$



 38 42  0  0  0  0  0  0  0  0999 V2000
   -8.9951    2.6327  -24.7289 N   0  0  0  0  0  0  0  0  0  0  0  0
   -8.1069    1.4266  -24.8103 C   0  0  0  0  0  0  0  0  0  0  0  0
   -8.6429    0.0743  -24.4444 C   0  0  0  0  0  0  0  0  0  0  0  0
   -9.0365   -1.3345  -24.1124 C   0  0  0  0  0  0  0  0  0  0  0  0
  -10.0012   -1.9656  -23.7285 O   0  0  0  0  0  0  0  0  0  0  0  0
   -7.8420   -2.2142  -24.3349 N   0  0  0  0  0  0  0  0  0  0  0  0
   -6.7102   -1.3489  -24.8044 C   0  0  0  0  0  0  0  0  0  0  0  0
   -7.2052    0.0654  -24.8721 C   0  0  0  0  0  0  0  0  0  0  0  0
  -10.0673   -0.0720  -23.9971 C   0  0  0  0  0  0  0  0  0  0  0  0
  -10.6033   -1.4243  -23.6313 C   0  0  0  0  0  0  0  0  0  0  0  0
  -12.0275   -1.5705  -23.1840 C   0  0  0  0  0  0  0  0  0  0  0  0
  -12.5637   -2.9229  -22.8181 Cl  0  0  0  0  0  0  0  0  0  0  0  0
  -12.9157   -0.3645  -23.1026 C   0  0  0  0  0  0  0  0  0  0  0  0
  -12.3797    0.9878  -23.4685 C   0  0  0  0  0  0  0  0  0  0  0  0
  -10.9555    1.1340  -23.9158 C   0  0  0  0  0  0  0  0  0  0  0  0
  -10.4193    2.4864  -24.2817 C   0  0  0  0  0  0  0  0  0  0  0  0
  -11.3076    3.6924  -24.2003 O   0  0  0  0  0  0  0  0  0  0  0  0
   -7.7887   -3.6984  -24.1248 C   0  0  0  0  0  0  0  0  0  0  0  0
   -7.1934   -4.2568  -22.8663 C   0  0  0  0  0  0  0  0  0  0  0  0
   -7.1401   -5.7411  -22.6561 N   0  0  0  0  0  0  0  0  0  0  0  0
   -7.6822   -6.6669  -23.7045 C   0  0  0  0  0  0  0  0  0  0  0  0
   -8.2775   -6.1084  -24.9630 C   0  0  0  0  0  0  0  0  0  0  0  0
   -8.8195   -7.0343  -26.0114 C   0  0  0  0  0  0  0  0  0  0  0  0
   -9.4148   -6.4758  -27.2698 C   0  0  0  0  0  0  0  0  0  0  0  0
   -9.4681   -4.9916  -27.4799 C   0  0  0  0  0  0  0  0  0  0  0  0
   -8.9261   -4.0658  -26.4316 C   0  0  0  0  0  0  0  0  0  0  0  0
   -8.3308   -4.6242  -25.1731 C   0  0  0  0  0  0  0  0  0  0  0  0
   -8.4590    3.9850  -25.0949 C   0  0  0  0  0  0  0  0  0  0  0  0
   -7.0176    5.7932  -21.8696 C   0  0  0  0  0  0  0  0  0  0  0  0
   -7.9633    5.0860  -22.7944 N   0  0  0  0  0  0  0  0  0  0  0  0
   -7.5132    4.6922  -24.1700 C   0  0  0  0  0  0  0  0  0  0  0  0
   -6.1172    5.0056  -24.6208 O   0  0  0  0  0  0  0  0  0  0  0  0
   -8.8795    4.8803  -22.4986 H   0  0  0  0  0  0  0  0  0  0  0  0
   -6.4033    1.2610  -25.2934 C   0  0  0  0  0  0  0  0  0  0  0  0
   -5.0173    1.4617  -24.7562 O   0  0  0  0  0  0  0  0  0  0  0  0
   -4.7566    1.3289  -23.2850 C   0  0  0  0  0  0  0  0  0  0  0  0
   -3.9513    0.1742  -22.7672 C   0  0  0  0  0  0  0  0  0  0  0  0
   -5.3013    2.3508  -22.3315 C   0  0  0  0  0  0  0  0  0  0  0  0
 29 30  1  0  0  0
 30 31  1  0  0  0
 31 32  2  0  0  0
 31 28  1  0  0  0
 28  1  1  0  0  0
  1  2  1  0  0  0
  3  2  1  0  0  0
  3  4  1  0  0  0
  4  5  2  0  0  0
  4  6  1  0  0  0
  6 18  1  0  0  0
 18 19  2  0  0  0
 19 20  1  0  0  0
 20 21  2  0  0  0
 21 22  1  0  0  0
 22 23  2  0  0  0
 23 24  1  0  0  0
 24 25  2  0  0  0
 25 26  1  0  0  0
 26 27  2  0  0  0
  6  7  1  0  0  0
  7  8  1  0  0  0
  8 34  1  0  0  0
 34 35  1  0  0  0
 35 36  1  0  0  0
 36 37  1  0  0  0
 36 38  1  0  0  0
  3  9  1  0  0  0
  9 10  2  0  0  0
 10 11  1  0  0  0
 11 12  1  0  0  0
 11 13  2  0  0  0
 13 14  1  0  0  0
 14 15  2  0  0  0
 15 16  1  0  0  0
 16 17  2  0  0  0
 16  1  1  0  0  0
  8  3  1  0  0  0
 15  9  1  0  0  0
 27 18  1  0  0  0
 27 22  1  0  0  0
 30 33  1  0  0  0
M  END
> <minimizedAffinity>
-7.01681

> <CNNscore>
0.3270065486

> <CNNaffinity>
6.4378595352

> <CNN_VS>
2.1052222252

> <CNNaffinity_variance>
0.1417664289

$$$$



 38 42  0  0  0  0  0  0  0  0999 V2000
   -7.5683   -2.9302  -22.4380 N   0  0  0  0  0  0  0  0  0  0  0  0
   -8.5304   -1.9622  -23.0603 C   0  0  0  0  0  0  0  0  0  0  0  0
   -8.2245   -0.4937  -23.0570 C   0  0  0  0  0  0  0  0  0  0  0  0
   -8.0548    0.9949  -23.1290 C   0  0  0  0  0  0  0  0  0  0  0  0
   -7.2661    1.8588  -22.8005 O   0  0  0  0  0  0  0  0  0  0  0  0
   -9.2507    1.5642  -23.8331 N   0  0  0  0  0  0  0  0  0  0  0  0
  -10.1595    0.4275  -24.1962 C   0  0  0  0  0  0  0  0  0  0  0  0
   -9.5253   -0.8444  -23.7165 C   0  0  0  0  0  0  0  0  0  0  0  0
   -6.9563    0.0068  -22.4314 C   0  0  0  0  0  0  0  0  0  0  0  0
   -6.6503    1.4752  -22.4281 C   0  0  0  0  0  0  0  0  0  0  0  0
   -5.3822    1.9756  -21.8025 C   0  0  0  0  0  0  0  0  0  0  0  0
   -5.0762    3.4441  -21.7992 Cl  0  0  0  0  0  0  0  0  0  0  0  0
   -4.4201    1.0076  -21.1802 C   0  0  0  0  0  0  0  0  0  0  0  0
   -4.7260   -0.4608  -21.1835 C   0  0  0  0  0  0  0  0  0  0  0  0
   -5.9942   -0.9612  -21.8091 C   0  0  0  0  0  0  0  0  0  0  0  0
   -6.3002   -2.4297  -21.8124 C   0  0  0  0  0  0  0  0  0  0  0  0
   -5.3380   -3.3977  -21.1901 O   0  0  0  0  0  0  0  0  0  0  0  0
   -9.4949    3.0155  -24.1231 C   0  0  0  0  0  0  0  0  0  0  0  0
   -8.3750    3.8793  -24.6230 C   0  0  0  0  0  0  0  0  0  0  0  0
   -8.6192    5.3306  -24.9130 N   0  0  0  0  0  0  0  0  0  0  0  0
   -9.9832    5.9181  -24.7031 C   0  0  0  0  0  0  0  0  0  0  0  0
  -11.1031    5.0544  -24.2033 C   0  0  0  0  0  0  0  0  0  0  0  0
  -12.4673    5.6420  -23.9934 C   0  0  0  0  0  0  0  0  0  0  0  0
  -13.5871    4.7782  -23.4935 C   0  0  0  0  0  0  0  0  0  0  0  0
  -13.3429    3.3269  -23.2035 C   0  0  0  0  0  0  0  0  0  0  0  0
  -11.9788    2.7394  -23.4134 C   0  0  0  0  0  0  0  0  0  0  0  0
  -10.8589    3.6031  -23.9132 C   0  0  0  0  0  0  0  0  0  0  0  0
   -7.8743   -4.3987  -22.4413 C   0  0  0  0  0  0  0  0  0  0  0  0
   -5.0710   -6.1838  -24.6103 C   0  0  0  0  0  0  0  0  0  0  0  0
   -5.7270   -5.2832  -23.6059 N   0  0  0  0  0  0  0  0  0  0  0  0
   -7.2183   -5.2992  -23.4456 C   0  0  0  0  0  0  0  0  0  0  0  0
   -8.0536   -6.2157  -24.2896 O   0  0  0  0  0  0  0  0  0  0  0  0
   -5.1788   -4.6817  -23.0520 H   0  0  0  0  0  0  0  0  0  0  0  0
  -10.0923   -2.2246  -23.8695 C   0  0  0  0  0  0  0  0  0  0  0  0
  -11.0852   -2.7425  -22.8717 O   0  0  0  0  0  0  0  0  0  0  0  0
  -12.4536   -2.1334  -22.7897 C   0  0  0  0  0  0  0  0  0  0  0  0
  -12.8025   -0.9546  -23.6491 C   0  0  0  0  0  0  0  0  0  0  0  0
  -13.4730   -2.7032  -21.8484 C   0  0  0  0  0  0  0  0  0  0  0  0
 29 30  1  0  0  0
 30 31  1  0  0  0
 31 32  2  0  0  0
 31 28  1  0  0  0
 28  1  1  0  0  0
  1  2  1  0  0  0
  3  2  1  0  0  0
  3  4  1  0  0  0
  4  5  2  0  0  0
  4  6  1  0  0  0
  6 18  1  0  0  0
 18 19  2  0  0  0
 19 20  1  0  0  0
 20 21  2  0  0  0
 21 22  1  0  0  0
 22 23  2  0  0  0
 23 24  1  0  0  0
 24 25  2  0  0  0
 25 26  1  0  0  0
 26 27  2  0  0  0
  6  7  1  0  0  0
  7  8  1  0  0  0
  8 34  1  0  0  0
 34 35  1  0  0  0
 35 36  1  0  0  0
 36 37  1  0  0  0
 36 38  1  0  0  0
  3  9  1  0  0  0
  9 10  2  0  0  0
 10 11  1  0  0  0
 11 12  1  0  0  0
 11 13  2  0  0  0
 13 14  1  0  0  0
 14 15  2  0  0  0
 15 16  1  0  0  0
 16 17  2  0  0  0
 16  1  1  0  0  0
  8  3  1  0  0  0
 15  9  1  0  0  0
 27 18  1  0  0  0
 27 22  1  0  0  0
 30 33  1  0  0  0
M  END
> <minimizedAffinity>
-7.53568

> <CNNscore>
0.3067863882

> <CNNaffinity>
6.6162772179

> <CNN_VS>
2.0297837257

> <CNNaffinity_variance>
0.3365059197

$$$$



 38 42  0  0  0  0  0  0  0  0999 V2000
   -6.1214   -4.1969  -21.6964 N   0  0  0  0  0  0  0  0  0  0  0  0
   -6.7054   -3.6602  -22.9695 C   0  0  0  0  0  0  0  0  0  0  0  0
   -6.7170   -2.1822  -23.2248 C   0  0  0  0  0  0  0  0  0  0  0  0
   -6.7984   -0.7367  -23.6170 C   0  0  0  0  0  0  0  0  0  0  0  0
   -6.5038    0.3618  -23.1893 O   0  0  0  0  0  0  0  0  0  0  0  0
   -7.4538   -0.6579  -24.9639 N   0  0  0  0  0  0  0  0  0  0  0  0
   -7.7776   -2.0548  -25.4042 C   0  0  0  0  0  0  0  0  0  0  0  0
   -7.3222   -2.9968  -24.3294 C   0  0  0  0  0  0  0  0  0  0  0  0
   -6.1446   -1.2407  -22.2069 C   0  0  0  0  0  0  0  0  0  0  0  0
   -6.1563    0.2373  -22.4622 C   0  0  0  0  0  0  0  0  0  0  0  0
   -5.5839    1.1787  -21.4443 C   0  0  0  0  0  0  0  0  0  0  0  0
   -5.5955    2.6568  -21.6996 Cl  0  0  0  0  0  0  0  0  0  0  0  0
   -4.9999    0.6421  -20.1711 C   0  0  0  0  0  0  0  0  0  0  0  0
   -4.9883   -0.8360  -19.9158 C   0  0  0  0  0  0  0  0  0  0  0  0
   -5.5606   -1.7774  -20.9337 C   0  0  0  0  0  0  0  0  0  0  0  0
   -5.5490   -3.2555  -20.6785 C   0  0  0  0  0  0  0  0  0  0  0  0
   -4.9650   -3.7921  -19.4053 O   0  0  0  0  0  0  0  0  0  0  0  0
   -7.7360    0.5973  -25.7351 C   0  0  0  0  0  0  0  0  0  0  0  0
   -6.8971    0.9494  -26.9277 C   0  0  0  0  0  0  0  0  0  0  0  0
   -7.1793    2.2047  -27.6989 N   0  0  0  0  0  0  0  0  0  0  0  0
   -8.3003    3.1078  -27.2775 C   0  0  0  0  0  0  0  0  0  0  0  0
   -9.1392    2.7557  -26.0848 C   0  0  0  0  0  0  0  0  0  0  0  0
  -10.2603    3.6589  -25.6634 C   0  0  0  0  0  0  0  0  0  0  0  0
  -11.0991    3.3067  -24.4708 C   0  0  0  0  0  0  0  0  0  0  0  0
  -10.8169    2.0514  -23.6996 C   0  0  0  0  0  0  0  0  0  0  0  0
   -9.6959    1.1483  -24.1210 C   0  0  0  0  0  0  0  0  0  0  0  0
   -8.8570    1.5004  -25.3137 C   0  0  0  0  0  0  0  0  0  0  0  0
   -6.1098   -5.6750  -21.4411 C   0  0  0  0  0  0  0  0  0  0  0  0
   -3.5305   -7.2487  -24.0141 C   0  0  0  0  0  0  0  0  0  0  0  0
   -4.1391   -6.3185  -23.0070 N   0  0  0  0  0  0  0  0  0  0  0  0
   -5.5012   -6.6053  -22.4482 C   0  0  0  0  0  0  0  0  0  0  0  0
   -6.2549   -7.8223  -22.8965 O   0  0  0  0  0  0  0  0  0  0  0  0
   -3.6445   -5.5197  -22.7128 H   0  0  0  0  0  0  0  0  0  0  0  0
   -7.4497   -4.4912  -24.3547 C   0  0  0  0  0  0  0  0  0  0  0  0
   -8.7602   -5.1262  -24.7140 O   0  0  0  0  0  0  0  0  0  0  0  0
   -8.8599   -6.0081  -25.9233 C   0  0  0  0  0  0  0  0  0  0  0  0
   -7.6387   -6.7046  -26.4463 C   0  0  0  0  0  0  0  0  0  0  0  0
  -10.1807   -6.1934  -26.6095 C   0  0  0  0  0  0  0  0  0  0  0  0
 29 30  1  0  0  0
 30 31  1  0  0  0
 31 32  2  0  0  0
 31 28  1  0  0  0
 28  1  1  0  0  0
  1  2  1  0  0  0
  3  2  1  0  0  0
  3  4  1  0  0  0
  4  5  2  0  0  0
  4  6  1  0  0  0
  6 18  1  0  0  0
 18 19  2  0  0  0
 19 20  1  0  0  0
 20 21  2  0  0  0
 21 22  1  0  0  0
 22 23  2  0  0  0
 23 24  1  0  0  0
 24 25  2  0  0  0
 25 26  1  0  0  0
 26 27  2  0  0  0
  6  7  1  0  0  0
  7  8  1  0  0  0
  8 34  1  0  0  0
 34 35  1  0  0  0
 35 36  1  0  0  0
 36 37  1  0  0  0
 36 38  1  0  0  0
  3  9  1  0  0  0
  9 10  2  0  0  0
 10 11  1  0  0  0
 11 12  1  0  0  0
 11 13  2  0  0  0
 13 14  1  0  0  0
 14 15  2  0  0  0
 15 16  1  0  0  0
 16 17  2  0  0  0
 16  1  1  0  0  0
  8  3  1  0  0  0
 15  9  1  0  0  0
 27 18  1  0  0  0
 27 22  1  0  0  0
 30 33  1  0  0  0
M  END
> <minimizedAffinity>
-7.55431

> <CNNscore>
0.2790724635

> <CNNaffinity>
6.3057227135

> <CNN_VS>
1.7597535849

> <CNNaffinity_variance>
0.0215395149

$$$$
