


 38 42  0  0  0  0  0  0  0  0999 V2000
    4.9233    1.2717   21.8025 N   0  0  0  0  0  0  0  0  0  0  0  0
    5.8397    0.1002   21.9971 C   0  0  0  0  0  0  0  0  0  0  0  0
    7.2767    0.3249   22.3638 C   0  0  0  0  0  0  0  0  0  0  0  0
    8.7297    0.3935   22.7300 C   0  0  0  0  0  0  0  0  0  0  0  0
    9.5912    1.2158   22.9705 O   0  0  0  0  0  0  0  0  0  0  0  0
    9.2521   -1.0098   22.8189 N   0  0  0  0  0  0  0  0  0  0  0  0
    8.1219   -1.9457   22.5077 C   0  0  0  0  0  0  0  0  0  0  0  0
    6.9011   -1.1207   22.2264 C   0  0  0  0  0  0  0  0  0  0  0  0
    7.7973    1.7212   22.5361 C   0  0  0  0  0  0  0  0  0  0  0  0
    9.2343    1.9459   22.9029 C   0  0  0  0  0  0  0  0  0  0  0  0
    9.7548    3.3421   23.0751 C   0  0  0  0  0  0  0  0  0  0  0  0
   11.1919    3.5668   23.4419 Cl  0  0  0  0  0  0  0  0  0  0  0  0
    8.8384    4.5135   22.8805 C   0  0  0  0  0  0  0  0  0  0  0  0
    7.4014    4.2888   22.5138 C   0  0  0  0  0  0  0  0  0  0  0  0
    6.8809    2.8926   22.3415 C   0  0  0  0  0  0  0  0  0  0  0  0
    5.4438    2.6679   21.9747 C   0  0  0  0  0  0  0  0  0  0  0  0
    4.5274    3.8393   21.7801 O   0  0  0  0  0  0  0  0  0  0  0  0
   10.6578   -1.4075   23.1592 C   0  0  0  0  0  0  0  0  0  0  0  0
   11.7802   -1.0701   22.2230 C   0  0  0  0  0  0  0  0  0  0  0  0
   13.1859   -1.4678   22.5633 N   0  0  0  0  0  0  0  0  0  0  0  0
   13.4692   -2.2027   23.8399 C   0  0  0  0  0  0  0  0  0  0  0  0
   12.3468   -2.5400   24.7761 C   0  0  0  0  0  0  0  0  0  0  0  0
   12.6302   -3.2750   26.0527 C   0  0  0  0  0  0  0  0  0  0  0  0
   11.5078   -3.6122   26.9888 C   0  0  0  0  0  0  0  0  0  0  0  0
   10.1020   -3.2146   26.6485 C   0  0  0  0  0  0  0  0  0  0  0  0
    9.8187   -2.4797   25.3720 C   0  0  0  0  0  0  0  0  0  0  0  0
   10.9411   -2.1424   24.4357 C   0  0  0  0  0  0  0  0  0  0  0  0
    3.4863    1.0469   21.4357 C   0  0  0  0  0  0  0  0  0  0  0  0
    0.9276    3.0444   19.1525 C   0  0  0  0  0  0  0  0  0  0  0  0
    1.5183    2.3395   20.3375 N   0  0  0  0  0  0  0  0  0  0  0  0
    2.8956    1.7519   20.2507 C   0  0  0  0  0  0  0  0  0  0  0  0
    3.6824    1.8692   18.9790 O   0  0  0  0  0  0  0  0  0  0  0  0
    1.0019    2.2625   21.1721 H   0  0  0  0  0  0  0  0  0  0  0  0
    5.5430   -1.6488   21.8703 C   0  0  0  0  0  0  0  0  0  0  0  0
    5.3832   -3.0757   21.4365 O   0  0  0  0  0  0  0  0  0  0  0  0
    5.5376   -4.1849   22.4344 C   0  0  0  0  0  0  0  0  0  0  0  0
    5.4420   -3.8918   23.9024 C   0  0  0  0  0  0  0  0  0  0  0  0
    5.7878   -5.5872   21.9644 C   0  0  0  0  0  0  0  0  0  0  0  0
 29 30  1  0  0  0
 30 31  1  0  0  0
 31 32  2  0  0  0
 31 28  1  0  0  0
 28  1  1  0  0  0
  1  2  1  0  0  0
  3  2  1  0  0  0
  3  4  1  0  0  0
  4  5  2  0  0  0
  4  6  1  0  0  0
  6 18  1  0  0  0
 18 19  2  0  0  0
 19 20  1  0  0  0
 20 21  2  0  0  0
 21 22  1  0  0  0
 22 23  2  0  0  0
 23 24  1  0  0  0
 24 25  2  0  0  0
 25 26  1  0  0  0
 26 27  2  0  0  0
  6  7  1  0  0  0
  7  8  1  0  0  0
  8 34  1  0  0  0
 34 35  1  0  0  0
 35 36  1  0  0  0
 36 37  1  0  0  0
 36 38  1  0  0  0
  3  9  1  0  0  0
  9 10  2  0  0  0
 10 11  1  0  0  0
 11 12  1  0  0  0
 11 13  2  0  0  0
 13 14  1  0  0  0
 14 15  2  0  0  0
 15 16  1  0  0  0
 16 17  2  0  0  0
 16  1  1  0  0  0
  8  3  1  0  0  0
 15  9  1  0  0  0
 27 18  1  0  0  0
 27 22  1  0  0  0
 30 33  1  0  0  0
M  END
> <minimizedAffinity>
-7.34356

> <CNNscore>
0.3332317472

> <CNNaffinity>
6.6988143921

> <CNN_VS>
2.2322576046

> <CNNaffinity_variance>
0.0908476859

$$$$



 38 42  0  0  0  0  0  0  0  0999 V2000
    9.6298    0.6819   22.7482 N   0  0  0  0  0  0  0  0  0  0  0  0
    8.4968   -0.2931   22.6230 C   0  0  0  0  0  0  0  0  0  0  0  0
    8.5290   -1.5827   23.3884 C   0  0  0  0  0  0  0  0  0  0  0  0
    8.4223   -2.9051   24.0883 C   0  0  0  0  0  0  0  0  0  0  0  0
    9.0449   -3.5984   24.8680 O   0  0  0  0  0  0  0  0  0  0  0  0
    7.1311   -3.5461   23.6738 N   0  0  0  0  0  0  0  0  0  0  0  0
    6.4397   -2.6199   22.7177 C   0  0  0  0  0  0  0  0  0  0  0  0
    7.3037   -1.4065   22.5413 C   0  0  0  0  0  0  0  0  0  0  0  0
    9.6942   -1.8973   24.2791 C   0  0  0  0  0  0  0  0  0  0  0  0
    9.7264   -3.1869   25.0445 C   0  0  0  0  0  0  0  0  0  0  0  0
   10.8916   -3.5015   25.9352 C   0  0  0  0  0  0  0  0  0  0  0  0
   10.9239   -4.7911   26.7006 Cl  0  0  0  0  0  0  0  0  0  0  0  0
   12.0246   -2.5265   26.0604 C   0  0  0  0  0  0  0  0  0  0  0  0
   11.9925   -1.2370   25.2950 C   0  0  0  0  0  0  0  0  0  0  0  0
   10.8273   -0.9224   24.4043 C   0  0  0  0  0  0  0  0  0  0  0  0
   10.7950    0.3673   23.6389 C   0  0  0  0  0  0  0  0  0  0  0  0
   11.9280    1.3423   23.7641 O   0  0  0  0  0  0  0  0  0  0  0  0
    6.6208   -4.8793   24.1345 C   0  0  0  0  0  0  0  0  0  0  0  0
    7.1893   -6.1409   23.5554 C   0  0  0  0  0  0  0  0  0  0  0  0
    6.6791   -7.4741   24.0162 N   0  0  0  0  0  0  0  0  0  0  0  0
    5.6003   -7.5457   25.0560 C   0  0  0  0  0  0  0  0  0  0  0  0
    5.0319   -6.2841   25.6350 C   0  0  0  0  0  0  0  0  0  0  0  0
    3.9531   -6.3558   26.6749 C   0  0  0  0  0  0  0  0  0  0  0  0
    3.3847   -5.0941   27.2539 C   0  0  0  0  0  0  0  0  0  0  0  0
    3.8949   -3.7610   26.7932 C   0  0  0  0  0  0  0  0  0  0  0  0
    4.9736   -3.6894   25.7534 C   0  0  0  0  0  0  0  0  0  0  0  0
    5.5421   -4.9509   25.1743 C   0  0  0  0  0  0  0  0  0  0  0  0
    9.5976    1.9715   21.9828 C   0  0  0  0  0  0  0  0  0  0  0  0
    8.3313    5.4172   23.4906 C   0  0  0  0  0  0  0  0  0  0  0  0
    9.2467    4.3107   23.0575 N   0  0  0  0  0  0  0  0  0  0  0  0
    8.6821    3.0780   22.4159 C   0  0  0  0  0  0  0  0  0  0  0  0
    7.2020    2.9519   22.2073 O   0  0  0  0  0  0  0  0  0  0  0  0
   10.2182    4.3935   23.1944 H   0  0  0  0  0  0  0  0  0  0  0  0
    6.9963   -0.2243   21.6706 C   0  0  0  0  0  0  0  0  0  0  0  0
    6.6365   -0.4281   20.2288 O   0  0  0  0  0  0  0  0  0  0  0  0
    5.4266    0.2479   19.6549 C   0  0  0  0  0  0  0  0  0  0  0  0
    4.3887    0.8298   20.5681 C   0  0  0  0  0  0  0  0  0  0  0  0
    5.2548    0.3420   18.1678 C   0  0  0  0  0  0  0  0  0  0  0  0
 29 30  1  0  0  0
 30 31  1  0  0  0
 31 32  2  0  0  0
 31 28  1  0  0  0
 28  1  1  0  0  0
  1  2  1  0  0  0
  3  2  1  0  0  0
  3  4  1  0  0  0
  4  5  2  0  0  0
  4  6  1  0  0  0
  6 18  1  0  0  0
 18 19  2  0  0  0
 19 20  1  0  0  0
 20 21  2  0  0  0
 21 22  1  0  0  0
 22 23  2  0  0  0
 23 24  1  0  0  0
 24 25  2  0  0  0
 25 26  1  0  0  0
 26 27  2  0  0  0
  6  7  1  0  0  0
  7  8  1  0  0  0
  8 34  1  0  0  0
 34 35  1  0  0  0
 35 36  1  0  0  0
 36 37  1  0  0  0
 36 38  1  0  0  0
  3  9  1  0  0  0
  9 10  2  0  0  0
 10 11  1  0  0  0
 11 12  1  0  0  0
 11 13  2  0  0  0
 13 14  1  0  0  0
 14 15  2  0  0  0
 15 16  1  0  0  0
 16 17  2  0  0  0
 16  1  1  0  0  0
  8  3  1  0  0  0
 15  9  1  0  0  0
 27 18  1  0  0  0
 27 22  1  0  0  0
 30 33  1  0  0  0
M  END
> <minimizedAffinity>
-8.42936

> <CNNscore>
0.3024719059

> <CNNaffinity>
6.6972603798

> <CNN_VS>
2.0257329941

> <CNNaffinity_variance>
0.2444774359

$$$$



 38 42  0  0  0  0  0  0  0  0999 V2000
   10.8704    1.5591   22.6370 N   0  0  0  0  0  0  0  0  0  0  0  0
    9.4782    1.0987   22.9529 C   0  0  0  0  0  0  0  0  0  0  0  0
    9.2656   -0.1198   23.8014 C   0  0  0  0  0  0  0  0  0  0  0  0
    8.8989   -1.3136   24.6322 C   0  0  0  0  0  0  0  0  0  0  0  0
    9.4286   -2.2098   25.2587 O   0  0  0  0  0  0  0  0  0  0  0  0
    7.4023   -1.3988   24.6862 N   0  0  0  0  0  0  0  0  0  0  0  0
    6.8440   -0.2576   23.8888 C   0  0  0  0  0  0  0  0  0  0  0  0
    7.9956    0.5329   23.3420 C   0  0  0  0  0  0  0  0  0  0  0  0
   10.4452   -0.8780   24.3341 C   0  0  0  0  0  0  0  0  0  0  0  0
   10.2326   -2.0965   25.1826 C   0  0  0  0  0  0  0  0  0  0  0  0
   11.4122   -2.8546   25.7152 C   0  0  0  0  0  0  0  0  0  0  0  0
   11.1996   -4.0732   26.5638 Cl  0  0  0  0  0  0  0  0  0  0  0  0
   12.8044   -2.3943   25.3993 C   0  0  0  0  0  0  0  0  0  0  0  0
   13.0170   -1.1758   24.5508 C   0  0  0  0  0  0  0  0  0  0  0  0
   11.8374   -0.4176   24.0182 C   0  0  0  0  0  0  0  0  0  0  0  0
   12.0500    0.8009   23.1696 C   0  0  0  0  0  0  0  0  0  0  0  0
   13.4423    1.2613   22.8537 O   0  0  0  0  0  0  0  0  0  0  0  0
    6.6041   -2.4420   25.4105 C   0  0  0  0  0  0  0  0  0  0  0  0
    6.0437   -2.1476   26.7704 C   0  0  0  0  0  0  0  0  0  0  0  0
    5.2456   -3.1908   27.4947 N   0  0  0  0  0  0  0  0  0  0  0  0
    5.0078   -4.5285   26.8591 C   0  0  0  0  0  0  0  0  0  0  0  0
    5.5682   -4.8230   25.4992 C   0  0  0  0  0  0  0  0  0  0  0  0
    5.3304   -6.1608   24.8636 C   0  0  0  0  0  0  0  0  0  0  0  0
    5.8909   -6.4551   23.5037 C   0  0  0  0  0  0  0  0  0  0  0  0
    6.6890   -5.4119   22.7794 C   0  0  0  0  0  0  0  0  0  0  0  0
    6.9268   -4.0742   23.4150 C   0  0  0  0  0  0  0  0  0  0  0  0
    6.3664   -3.7797   24.7749 C   0  0  0  0  0  0  0  0  0  0  0  0
   11.0830    2.7776   21.7885 C   0  0  0  0  0  0  0  0  0  0  0  0
   10.6610    6.3305   23.5057 C   0  0  0  0  0  0  0  0  0  0  0  0
   10.3236    5.0182   22.8623 N   0  0  0  0  0  0  0  0  0  0  0  0
   11.4204    4.0900   22.4318 C   0  0  0  0  0  0  0  0  0  0  0  0
   12.8548    4.4742   22.6446 O   0  0  0  0  0  0  0  0  0  0  0  0
    9.3822    4.7660   22.7227 H   0  0  0  0  0  0  0  0  0  0  0  0
    7.8948    1.7606   22.4860 C   0  0  0  0  0  0  0  0  0  0  0  0
    7.7595    1.6284   20.9980 O   0  0  0  0  0  0  0  0  0  0  0  0
    6.5425    0.9776   20.4104 C   0  0  0  0  0  0  0  0  0  0  0  0
    6.6903   -0.0492   19.3270 C   0  0  0  0  0  0  0  0  0  0  0  0
    5.1777    1.3538   20.9060 C   0  0  0  0  0  0  0  0  0  0  0  0
 29 30  1  0  0  0
 30 31  1  0  0  0
 31 32  2  0  0  0
 31 28  1  0  0  0
 28  1  1  0  0  0
  1  2  1  0  0  0
  3  2  1  0  0  0
  3  4  1  0  0  0
  4  5  2  0  0  0
  4  6  1  0  0  0
  6 18  1  0  0  0
 18 19  2  0  0  0
 19 20  1  0  0  0
 20 21  2  0  0  0
 21 22  1  0  0  0
 22 23  2  0  0  0
 23 24  1  0  0  0
 24 25  2  0  0  0
 25 26  1  0  0  0
 26 27  2  0  0  0
  6  7  1  0  0  0
  7  8  1  0  0  0
  8 34  1  0  0  0
 34 35  1  0  0  0
 35 36  1  0  0  0
 36 37  1  0  0  0
 36 38  1  0  0  0
  3  9  1  0  0  0
  9 10  2  0  0  0
 10 11  1  0  0  0
 11 12  1  0  0  0
 11 13  2  0  0  0
 13 14  1  0  0  0
 14 15  2  0  0  0
 15 16  1  0  0  0
 16 17  2  0  0  0
 16  1  1  0  0  0
  8  3  1  0  0  0
 15  9  1  0  0  0
 27 18  1  0  0  0
 27 22  1  0  0  0
 30 33  1  0  0  0
M  END
> <minimizedAffinity>
-8.34217

> <CNNscore>
0.2669755518

> <CNNaffinity>
6.7896003723

> <CNN_VS>
1.8126573563

> <CNNaffinity_variance>
0.2331649810

$$$$



 38 42  0  0  0  0  0  0  0  0999 V2000
   10.8258    1.5486   22.7478 N   0  0  0  0  0  0  0  0  0  0  0  0
    9.4096    1.2062   23.1040 C   0  0  0  0  0  0  0  0  0  0  0  0
    9.1244    0.0528   24.0195 C   0  0  0  0  0  0  0  0  0  0  0  0
    8.6870   -1.0660   24.9178 C   0  0  0  0  0  0  0  0  0  0  0  0
    9.1616   -1.9632   25.5857 O   0  0  0  0  0  0  0  0  0  0  0  0
    7.1891   -1.0412   24.9934 N   0  0  0  0  0  0  0  0  0  0  0  0
    6.7007    0.0930   24.1419 C   0  0  0  0  0  0  0  0  0  0  0  0
    7.8968    0.7691   23.5400 C   0  0  0  0  0  0  0  0  0  0  0  0
   10.2555   -0.7583   24.5789 C   0  0  0  0  0  0  0  0  0  0  0  0
    9.9703   -1.9117   25.4944 C   0  0  0  0  0  0  0  0  0  0  0  0
   11.1013   -2.7227   26.0537 C   0  0  0  0  0  0  0  0  0  0  0  0
   10.8162   -3.8762   26.9693 Cl  0  0  0  0  0  0  0  0  0  0  0  0
   12.5176   -2.3803   25.6975 C   0  0  0  0  0  0  0  0  0  0  0  0
   12.8028   -1.2269   24.7819 C   0  0  0  0  0  0  0  0  0  0  0  0
   11.6718   -0.4159   24.2226 C   0  0  0  0  0  0  0  0  0  0  0  0
   11.9569    0.7376   23.3071 C   0  0  0  0  0  0  0  0  0  0  0  0
   13.3732    1.0800   22.9508 O   0  0  0  0  0  0  0  0  0  0  0  0
    6.3304   -1.9849   25.7822 C   0  0  0  0  0  0  0  0  0  0  0  0
    6.0508   -3.3618   25.2568 C   0  0  0  0  0  0  0  0  0  0  0  0
    5.1921   -4.3055   26.0455 N   0  0  0  0  0  0  0  0  0  0  0  0
    4.6130   -3.8723   27.3596 C   0  0  0  0  0  0  0  0  0  0  0  0
    4.8925   -2.4954   27.8849 C   0  0  0  0  0  0  0  0  0  0  0  0
    4.3133   -2.0622   29.1991 C   0  0  0  0  0  0  0  0  0  0  0  0
    4.5928   -0.6852   29.7244 C   0  0  0  0  0  0  0  0  0  0  0  0
    5.4515    0.2585   28.9357 C   0  0  0  0  0  0  0  0  0  0  0  0
    6.0307   -0.1748   27.6216 C   0  0  0  0  0  0  0  0  0  0  0  0
    5.7512   -1.5517   27.0962 C   0  0  0  0  0  0  0  0  0  0  0  0
   11.1110    2.7021   21.8322 C   0  0  0  0  0  0  0  0  0  0  0  0
   10.7228    6.3315   23.3901 C   0  0  0  0  0  0  0  0  0  0  0  0
   10.3728    4.9893   22.8190 N   0  0  0  0  0  0  0  0  0  0  0  0
   11.4610    4.0443   22.4034 C   0  0  0  0  0  0  0  0  0  0  0  0
   12.8991    4.4413   22.5589 O   0  0  0  0  0  0  0  0  0  0  0  0
    9.4290    4.7287   22.7169 H   0  0  0  0  0  0  0  0  0  0  0  0
    7.8699    1.9536   22.6201 C   0  0  0  0  0  0  0  0  0  0  0  0
    7.7176    1.7518   21.1417 O   0  0  0  0  0  0  0  0  0  0  0  0
    6.4729    1.1173   20.5955 C   0  0  0  0  0  0  0  0  0  0  0  0
    5.1257    1.6041   21.0405 C   0  0  0  0  0  0  0  0  0  0  0  0
    6.5754   -0.0039   19.6044 C   0  0  0  0  0  0  0  0  0  0  0  0
 29 30  1  0  0  0
 30 31  1  0  0  0
 31 32  2  0  0  0
 31 28  1  0  0  0
 28  1  1  0  0  0
  1  2  1  0  0  0
  3  2  1  0  0  0
  3  4  1  0  0  0
  4  5  2  0  0  0
  4  6  1  0  0  0
  6 18  1  0  0  0
 18 19  2  0  0  0
 19 20  1  0  0  0
 20 21  2  0  0  0
 21 22  1  0  0  0
 22 23  2  0  0  0
 23 24  1  0  0  0
 24 25  2  0  0  0
 25 26  1  0  0  0
 26 27  2  0  0  0
  6  7  1  0  0  0
  7  8  1  0  0  0
  8 34  1  0  0  0
 34 35  1  0  0  0
 35 36  1  0  0  0
 36 37  1  0  0  0
 36 38  1  0  0  0
  3  9  1  0  0  0
  9 10  2  0  0  0
 10 11  1  0  0  0
 11 12  1  0  0  0
 11 13  2  0  0  0
 13 14  1  0  0  0
 14 15  2  0  0  0
 15 16  1  0  0  0
 16 17  2  0  0  0
 16  1  1  0  0  0
  8  3  1  0  0  0
 15  9  1  0  0  0
 27 18  1  0  0  0
 27 22  1  0  0  0
 30 33  1  0  0  0
M  END
> <minimizedAffinity>
-7.81745

> <CNNscore>
0.2630053461

> <CNNaffinity>
6.6657152176

> <CNN_VS>
1.7531187534

> <CNNaffinity_variance>
0.1163039207

$$$$



 38 42  0  0  0  0  0  0  0  0999 V2000
    5.5641    3.7586   22.7083 N   0  0  0  0  0  0  0  0  0  0  0  0
    6.3729    2.4996   22.6046 C   0  0  0  0  0  0  0  0  0  0  0  0
    6.7744    1.7616   23.8472 C   0  0  0  0  0  0  0  0  0  0  0  0
    7.2471    0.9202   24.9955 C   0  0  0  0  0  0  0  0  0  0  0  0
    7.1987    0.8900   26.2092 O   0  0  0  0  0  0  0  0  0  0  0  0
    8.0174   -0.2384   24.4350 N   0  0  0  0  0  0  0  0  0  0  0  0
    8.0208   -0.1131   22.9402 C   0  0  0  0  0  0  0  0  0  0  0  0
    7.2526    1.1230   22.5770 C   0  0  0  0  0  0  0  0  0  0  0  0
    6.3670    2.2826   25.1936 C   0  0  0  0  0  0  0  0  0  0  0  0
    6.7685    1.5446   26.4362 C   0  0  0  0  0  0  0  0  0  0  0  0
    6.3611    2.0655   27.7825 C   0  0  0  0  0  0  0  0  0  0  0  0
    6.7626    1.3275   29.0252 Cl  0  0  0  0  0  0  0  0  0  0  0  0
    5.5523    3.3245   27.8862 C   0  0  0  0  0  0  0  0  0  0  0  0
    5.1508    4.0625   26.6436 C   0  0  0  0  0  0  0  0  0  0  0  0
    5.5582    3.5415   25.2973 C   0  0  0  0  0  0  0  0  0  0  0  0
    5.1567    4.2795   24.0546 C   0  0  0  0  0  0  0  0  0  0  0  0
    4.3478    5.5385   24.1583 O   0  0  0  0  0  0  0  0  0  0  0  0
    8.6698   -1.3306   25.2297 C   0  0  0  0  0  0  0  0  0  0  0  0
    7.8271   -2.3044   25.9988 C   0  0  0  0  0  0  0  0  0  0  0  0
    8.4794   -3.3966   26.7936 N   0  0  0  0  0  0  0  0  0  0  0  0
    9.9745   -3.5149   26.8192 C   0  0  0  0  0  0  0  0  0  0  0  0
   10.8172   -2.5411   26.0500 C   0  0  0  0  0  0  0  0  0  0  0  0
   12.3124   -2.6595   26.0756 C   0  0  0  0  0  0  0  0  0  0  0  0
   13.1551   -1.6856   25.3065 C   0  0  0  0  0  0  0  0  0  0  0  0
   12.5027   -0.5935   24.5118 C   0  0  0  0  0  0  0  0  0  0  0  0
   11.0076   -0.4751   24.4862 C   0  0  0  0  0  0  0  0  0  0  0  0
   10.1649   -1.4489   25.2553 C   0  0  0  0  0  0  0  0  0  0  0  0
    5.1626    4.4966   21.4656 C   0  0  0  0  0  0  0  0  0  0  0  0
    1.4680    4.7006   20.0309 C   0  0  0  0  0  0  0  0  0  0  0  0
    2.7327    5.0709   20.7475 N   0  0  0  0  0  0  0  0  0  0  0  0
    3.8979    4.1263   20.7490 C   0  0  0  0  0  0  0  0  0  0  0  0
    3.7985    2.8115   20.0338 O   0  0  0  0  0  0  0  0  0  0  0  0
    2.7979    5.9338   21.2169 H   0  0  0  0  0  0  0  0  0  0  0  0
    7.0059    1.6311   21.1874 C   0  0  0  0  0  0  0  0  0  0  0  0
    7.1634    0.7111   20.0133 O   0  0  0  0  0  0  0  0  0  0  0  0
    5.9716   -0.0165   19.4653 C   0  0  0  0  0  0  0  0  0  0  0  0
    5.3337   -1.1167   20.2606 C   0  0  0  0  0  0  0  0  0  0  0  0
    5.4177    0.3563   18.1221 C   0  0  0  0  0  0  0  0  0  0  0  0
 29 30  1  0  0  0
 30 31  1  0  0  0
 31 32  2  0  0  0
 31 28  1  0  0  0
 28  1  1  0  0  0
  1  2  1  0  0  0
  3  2  1  0  0  0
  3  4  1  0  0  0
  4  5  2  0  0  0
  4  6  1  0  0  0
  6 18  1  0  0  0
 18 19  2  0  0  0
 19 20  1  0  0  0
 20 21  2  0  0  0
 21 22  1  0  0  0
 22 23  2  0  0  0
 23 24  1  0  0  0
 24 25  2  0  0  0
 25 26  1  0  0  0
 26 27  2  0  0  0
  6  7  1  0  0  0
  7  8  1  0  0  0
  8 34  1  0  0  0
 34 35  1  0  0  0
 35 36  1  0  0  0
 36 37  1  0  0  0
 36 38  1  0  0  0
  3  9  1  0  0  0
  9 10  2  0  0  0
 10 11  1  0  0  0
 11 12  1  0  0  0
 11 13  2  0  0  0
 13 14  1  0  0  0
 14 15  2  0  0  0
 15 16  1  0  0  0
 16 17  2  0  0  0
 16  1  1  0  0  0
  8  3  1  0  0  0
 15  9  1  0  0  0
 27 18  1  0  0  0
 27 22  1  0  0  0
 30 33  1  0  0  0
M  END
> <minimizedAffinity>
-7.48736

> <CNNscore>
0.2246917039

> <CNNaffinity>
6.1441087723

> <CNN_VS>
1.3805302382

> <CNNaffinity_variance>
0.0828241557

$$$$



 38 42  0  0  0  0  0  0  0  0999 V2000
    7.5914   -2.7198   22.6762 N   0  0  0  0  0  0  0  0  0  0  0  0
    8.6942   -1.7411   22.9517 C   0  0  0  0  0  0  0  0  0  0  0  0
    8.5067   -0.2889   22.6265 C   0  0  0  0  0  0  0  0  0  0  0  0
    8.4647    1.1859   22.3559 C   0  0  0  0  0  0  0  0  0  0  0  0
    7.7130    2.0291   21.9084 O   0  0  0  0  0  0  0  0  0  0  0  0
    9.7772    1.7732   22.7832 N   0  0  0  0  0  0  0  0  0  0  0  0
   10.6304    0.6613   23.3178 C   0  0  0  0  0  0  0  0  0  0  0  0
    9.8452   -0.6131   23.2209 C   0  0  0  0  0  0  0  0  0  0  0  0
    7.2164    0.1847   22.0257 C   0  0  0  0  0  0  0  0  0  0  0  0
    7.0289    1.6370   21.7005 C   0  0  0  0  0  0  0  0  0  0  0  0
    5.7387    2.1105   21.0998 C   0  0  0  0  0  0  0  0  0  0  0  0
    5.5511    3.5628   20.7746 Cl  0  0  0  0  0  0  0  0  0  0  0  0
    4.6358    1.1318   20.8243 C   0  0  0  0  0  0  0  0  0  0  0  0
    4.8233   -0.3205   21.1495 C   0  0  0  0  0  0  0  0  0  0  0  0
    6.1136   -0.7940   21.7502 C   0  0  0  0  0  0  0  0  0  0  0  0
    6.3011   -2.2463   22.0755 C   0  0  0  0  0  0  0  0  0  0  0  0
    5.1983   -3.2250   21.8000 O   0  0  0  0  0  0  0  0  0  0  0  0
   10.1679    3.2185   22.6918 C   0  0  0  0  0  0  0  0  0  0  0  0
   11.4541    3.6071   22.0249 C   0  0  0  0  0  0  0  0  0  0  0  0
   11.8447    5.0524   21.9335 N   0  0  0  0  0  0  0  0  0  0  0  0
   10.9492    6.1092   22.5091 C   0  0  0  0  0  0  0  0  0  0  0  0
    9.6631    5.7206   23.1761 C   0  0  0  0  0  0  0  0  0  0  0  0
    8.7676    6.7774   23.7517 C   0  0  0  0  0  0  0  0  0  0  0  0
    7.4814    6.3887   24.4186 C   0  0  0  0  0  0  0  0  0  0  0  0
    7.0908    4.9434   24.5100 C   0  0  0  0  0  0  0  0  0  0  0  0
    7.9862    3.8867   23.9344 C   0  0  0  0  0  0  0  0  0  0  0  0
    9.2724    4.2752   23.2674 C   0  0  0  0  0  0  0  0  0  0  0  0
    7.7789   -4.1722   23.0014 C   0  0  0  0  0  0  0  0  0  0  0  0
    4.3999   -6.0058   23.9864 C   0  0  0  0  0  0  0  0  0  0  0  0
    5.5705   -5.0692   24.0351 N   0  0  0  0  0  0  0  0  0  0  0  0
    6.6083   -5.1088   22.9528 C   0  0  0  0  0  0  0  0  0  0  0  0
    6.4755   -6.0852   21.8217 O   0  0  0  0  0  0  0  0  0  0  0  0
    5.6577   -4.4284   24.7774 H   0  0  0  0  0  0  0  0  0  0  0  0
   10.3159   -1.9730   23.6442 C   0  0  0  0  0  0  0  0  0  0  0  0
   11.6986   -2.1493   24.1982 O   0  0  0  0  0  0  0  0  0  0  0  0
   11.8867   -2.6239   25.6086 C   0  0  0  0  0  0  0  0  0  0  0  0
   10.7292   -3.2056   26.3649 C   0  0  0  0  0  0  0  0  0  0  0  0
   13.2322   -2.5168   26.2628 C   0  0  0  0  0  0  0  0  0  0  0  0
 29 30  1  0  0  0
 30 31  1  0  0  0
 31 32  2  0  0  0
 31 28  1  0  0  0
 28  1  1  0  0  0
  1  2  1  0  0  0
  3  2  1  0  0  0
  3  4  1  0  0  0
  4  5  2  0  0  0
  4  6  1  0  0  0
  6 18  1  0  0  0
 18 19  2  0  0  0
 19 20  1  0  0  0
 20 21  2  0  0  0
 21 22  1  0  0  0
 22 23  2  0  0  0
 23 24  1  0  0  0
 24 25  2  0  0  0
 25 26  1  0  0  0
 26 27  2  0  0  0
  6  7  1  0  0  0
  7  8  1  0  0  0
  8 34  1  0  0  0
 34 35  1  0  0  0
 35 36  1  0  0  0
 36 37  1  0  0  0
 36 38  1  0  0  0
  3  9  1  0  0  0
  9 10  2  0  0  0
 10 11  1  0  0  0
 11 12  1  0  0  0
 11 13  2  0  0  0
 13 14  1  0  0  0
 14 15  2  0  0  0
 15 16  1  0  0  0
 16 17  2  0  0  0
 16  1  1  0  0  0
  8  3  1  0  0  0
 15  9  1  0  0  0
 27 18  1  0  0  0
 27 22  1  0  0  0
 30 33  1  0  0  0
M  END
> <minimizedAffinity>
-7.34446

> <CNNscore>
0.2152270973

> <CNNaffinity>
6.6539788246

> <CNN_VS>
1.4321165085

> <CNNaffinity_variance>
0.1774157137

$$$$



 38 42  0  0  0  0  0  0  0  0999 V2000
    6.5745    1.7187   21.3998 N   0  0  0  0  0  0  0  0  0  0  0  0
    7.8917    1.6337   22.1125 C   0  0  0  0  0  0  0  0  0  0  0  0
    8.3670    0.3188   22.6557 C   0  0  0  0  0  0  0  0  0  0  0  0
    8.9700   -0.9198   23.2492 C   0  0  0  0  0  0  0  0  0  0  0  0
    8.7246   -2.1022   23.3834 O   0  0  0  0  0  0  0  0  0  0  0  0
   10.2881   -0.5466   23.8603 N   0  0  0  0  0  0  0  0  0  0  0  0
   10.4997    0.9226   23.6445 C   0  0  0  0  0  0  0  0  0  0  0  0
    9.3124    1.4574   22.9000 C   0  0  0  0  0  0  0  0  0  0  0  0
    7.5251   -0.9111   22.4863 C   0  0  0  0  0  0  0  0  0  0  0  0
    8.0004   -2.2260   23.0296 C   0  0  0  0  0  0  0  0  0  0  0  0
    7.1585   -3.4558   22.8602 C   0  0  0  0  0  0  0  0  0  0  0  0
    7.6338   -4.7708   23.4035 Cl  0  0  0  0  0  0  0  0  0  0  0  0
    5.8414   -3.3708   22.1475 C   0  0  0  0  0  0  0  0  0  0  0  0
    5.3661   -2.0559   21.6043 C   0  0  0  0  0  0  0  0  0  0  0  0
    6.2079   -0.8261   21.7737 C   0  0  0  0  0  0  0  0  0  0  0  0
    5.7326    0.4889   21.2304 C   0  0  0  0  0  0  0  0  0  0  0  0
    4.4155    0.5739   20.5178 O   0  0  0  0  0  0  0  0  0  0  0  0
   11.2292   -1.4790   24.5637 C   0  0  0  0  0  0  0  0  0  0  0  0
   12.6739   -1.5297   24.1631 C   0  0  0  0  0  0  0  0  0  0  0  0
   13.6151   -2.4621   24.8665 N   0  0  0  0  0  0  0  0  0  0  0  0
   13.1116   -3.3439   25.9705 C   0  0  0  0  0  0  0  0  0  0  0  0
   11.6670   -3.2932   26.3712 C   0  0  0  0  0  0  0  0  0  0  0  0
   11.1635   -4.1751   27.4753 C   0  0  0  0  0  0  0  0  0  0  0  0
    9.7189   -4.1244   27.8759 C   0  0  0  0  0  0  0  0  0  0  0  0
    8.7777   -3.1920   27.1724 C   0  0  0  0  0  0  0  0  0  0  0  0
    9.2811   -2.3102   26.0684 C   0  0  0  0  0  0  0  0  0  0  0  0
   10.7258   -2.3608   25.6678 C   0  0  0  0  0  0  0  0  0  0  0  0
    6.0992    3.0337   20.8566 C   0  0  0  0  0  0  0  0  0  0  0  0
    3.6173    5.9476   21.9052 C   0  0  0  0  0  0  0  0  0  0  0  0
    4.4830    5.0573   21.0638 N   0  0  0  0  0  0  0  0  0  0  0  0
    5.2335    3.9240   21.6980 C   0  0  0  0  0  0  0  0  0  0  0  0
    5.1183    3.6808   23.1737 O   0  0  0  0  0  0  0  0  0  0  0  0
    4.5587    5.2169   20.0952 H   0  0  0  0  0  0  0  0  0  0  0  0
    9.1067    2.8811   22.4745 C   0  0  0  0  0  0  0  0  0  0  0  0
    9.7549    3.9945   23.2425 O   0  0  0  0  0  0  0  0  0  0  0  0
   10.9279    4.7247   22.6587 C   0  0  0  0  0  0  0  0  0  0  0  0
   10.9693    6.2238   22.6898 C   0  0  0  0  0  0  0  0  0  0  0  0
   12.0596    3.9558   22.0438 C   0  0  0  0  0  0  0  0  0  0  0  0
 29 30  1  0  0  0
 30 31  1  0  0  0
 31 32  2  0  0  0
 31 28  1  0  0  0
 28  1  1  0  0  0
  1  2  1  0  0  0
  3  2  1  0  0  0
  3  4  1  0  0  0
  4  5  2  0  0  0
  4  6  1  0  0  0
  6 18  1  0  0  0
 18 19  2  0  0  0
 19 20  1  0  0  0
 20 21  2  0  0  0
 21 22  1  0  0  0
 22 23  2  0  0  0
 23 24  1  0  0  0
 24 25  2  0  0  0
 25 26  1  0  0  0
 26 27  2  0  0  0
  6  7  1  0  0  0
  7  8  1  0  0  0
  8 34  1  0  0  0
 34 35  1  0  0  0
 35 36  1  0  0  0
 36 37  1  0  0  0
 36 38  1  0  0  0
  3  9  1  0  0  0
  9 10  2  0  0  0
 10 11  1  0  0  0
 11 12  1  0  0  0
 11 13  2  0  0  0
 13 14  1  0  0  0
 14 15  2  0  0  0
 15 16  1  0  0  0
 16 17  2  0  0  0
 16  1  1  0  0  0
  8  3  1  0  0  0
 15  9  1  0  0  0
 27 18  1  0  0  0
 27 22  1  0  0  0
 30 33  1  0  0  0
M  END
> <minimizedAffinity>
-7.52291

> <CNNscore>
0.2120455056

> <CNNaffinity>
6.6286058426

> <CNN_VS>
1.4055660963

> <CNNaffinity_variance>
0.0632082447

$$$$



 38 42  0  0  0  0  0  0  0  0999 V2000
    8.6091    4.5004   23.2823 N   0  0  0  0  0  0  0  0  0  0  0  0
    7.7923    3.2808   23.5912 C   0  0  0  0  0  0  0  0  0  0  0  0
    8.4298    1.9234   23.5593 C   0  0  0  0  0  0  0  0  0  0  0  0
    8.9267    0.5081   23.5668 C   0  0  0  0  0  0  0  0  0  0  0  0
    9.9487   -0.1206   23.3756 O   0  0  0  0  0  0  0  0  0  0  0  0
    7.7767   -0.3851   23.9270 N   0  0  0  0  0  0  0  0  0  0  0  0
    6.5690    0.4781   24.1421 C   0  0  0  0  0  0  0  0  0  0  0  0
    6.9727    1.9048   23.9149 C   0  0  0  0  0  0  0  0  0  0  0  0
    9.8841    1.7855   23.2186 C   0  0  0  0  0  0  0  0  0  0  0  0
   10.5216    0.4281   23.1867 C   0  0  0  0  0  0  0  0  0  0  0  0
   11.9758    0.2903   22.8460 C   0  0  0  0  0  0  0  0  0  0  0  0
   12.6134   -1.0671   22.8141 Cl  0  0  0  0  0  0  0  0  0  0  0  0
   12.7926    1.5100   22.5372 C   0  0  0  0  0  0  0  0  0  0  0  0
   12.1552    2.8674   22.5691 C   0  0  0  0  0  0  0  0  0  0  0  0
   10.7009    3.0051   22.9098 C   0  0  0  0  0  0  0  0  0  0  0  0
   10.0634    4.3626   22.9416 C   0  0  0  0  0  0  0  0  0  0  0  0
   10.8802    5.5822   22.6328 O   0  0  0  0  0  0  0  0  0  0  0  0
    7.8258   -1.8792   24.0504 C   0  0  0  0  0  0  0  0  0  0  0  0
    6.8280   -2.7256   23.3168 C   0  0  0  0  0  0  0  0  0  0  0  0
    6.8771   -4.2197   23.4402 N   0  0  0  0  0  0  0  0  0  0  0  0
    7.9240   -4.8674   24.2972 C   0  0  0  0  0  0  0  0  0  0  0  0
    8.9218   -4.0211   25.0308 C   0  0  0  0  0  0  0  0  0  0  0  0
    9.9687   -4.6689   25.8879 C   0  0  0  0  0  0  0  0  0  0  0  0
   10.9664   -3.8224   26.6214 C   0  0  0  0  0  0  0  0  0  0  0  0
   10.9173   -2.3283   26.4980 C   0  0  0  0  0  0  0  0  0  0  0  0
    9.8704   -1.6806   25.6410 C   0  0  0  0  0  0  0  0  0  0  0  0
    8.8727   -2.5270   24.9074 C   0  0  0  0  0  0  0  0  0  0  0  0
    7.9716    5.8578   23.3142 C   0  0  0  0  0  0  0  0  0  0  0  0
    8.5017    7.6613   26.8094 C   0  0  0  0  0  0  0  0  0  0  0  0
    8.7986    7.0029   25.4948 N   0  0  0  0  0  0  0  0  0  0  0  0
    7.6746    6.5162   24.6289 C   0  0  0  0  0  0  0  0  0  0  0  0
    6.2536    6.6880   25.0776 O   0  0  0  0  0  0  0  0  0  0  0  0
    9.7312    6.8902   25.2002 H   0  0  0  0  0  0  0  0  0  0  0  0
    6.0765    3.1027   24.0240 C   0  0  0  0  0  0  0  0  0  0  0  0
    4.7187    3.0841   23.3870 O   0  0  0  0  0  0  0  0  0  0  0  0
    4.5800    3.3053   21.9099 C   0  0  0  0  0  0  0  0  0  0  0  0
    5.1386    2.3013   20.9455 C   0  0  0  0  0  0  0  0  0  0  0  0
    3.8828    4.5303   21.3971 C   0  0  0  0  0  0  0  0  0  0  0  0
 29 30  1  0  0  0
 30 31  1  0  0  0
 31 32  2  0  0  0
 31 28  1  0  0  0
 28  1  1  0  0  0
  1  2  1  0  0  0
  3  2  1  0  0  0
  3  4  1  0  0  0
  4  5  2  0  0  0
  4  6  1  0  0  0
  6 18  1  0  0  0
 18 19  2  0  0  0
 19 20  1  0  0  0
 20 21  2  0  0  0
 21 22  1  0  0  0
 22 23  2  0  0  0
 23 24  1  0  0  0
 24 25  2  0  0  0
 25 26  1  0  0  0
 26 27  2  0  0  0
  6  7  1  0  0  0
  7  8  1  0  0  0
  8 34  1  0  0  0
 34 35  1  0  0  0
 35 36  1  0  0  0
 36 37  1  0  0  0
 36 38  1  0  0  0
  3  9  1  0  0  0
  9 10  2  0  0  0
 10 11  1  0  0  0
 11 12  1  0  0  0
 11 13  2  0  0  0
 13 14  1  0  0  0
 14 15  2  0  0  0
 15 16  1  0  0  0
 16 17  2  0  0  0
 16  1  1  0  0  0
  8  3  1  0  0  0
 15  9  1  0  0  0
 27 18  1  0  0  0
 27 22  1  0  0  0
 30 33  1  0  0  0
M  END
> <minimizedAffinity>
-7.07662

> <CNNscore>
0.2115651965

> <CNNaffinity>
6.5171175003

> <CNN_VS>
1.3787952662

> <CNNaffinity_variance>
0.1764327437

$$$$



 38 42  0  0  0  0  0  0  0  0999 V2000
    4.6443    2.6743   22.3968 N   0  0  0  0  0  0  0  0  0  0  0  0
    5.7299    1.6651   22.1669 C   0  0  0  0  0  0  0  0  0  0  0  0
    6.1559    0.7548   23.2804 C   0  0  0  0  0  0  0  0  0  0  0  0
    6.6848   -0.2173   24.2929 C   0  0  0  0  0  0  0  0  0  0  0  0
    6.5144   -0.5388   25.4522 O   0  0  0  0  0  0  0  0  0  0  0  0
    7.7590   -1.0324   23.6359 N   0  0  0  0  0  0  0  0  0  0  0  0
    7.8940   -0.5641   22.2173 C   0  0  0  0  0  0  0  0  0  0  0  0
    6.9032    0.5405   21.9976 C   0  0  0  0  0  0  0  0  0  0  0  0
    5.4961    0.8538   24.6240 C   0  0  0  0  0  0  0  0  0  0  0  0
    5.9221   -0.0565   25.7375 C   0  0  0  0  0  0  0  0  0  0  0  0
    5.2624    0.0425   27.0809 C   0  0  0  0  0  0  0  0  0  0  0  0
    5.6883   -0.8678   28.1946 Cl  0  0  0  0  0  0  0  0  0  0  0  0
    4.1767    1.0517   27.3109 C   0  0  0  0  0  0  0  0  0  0  0  0
    3.7508    1.9620   26.1974 C   0  0  0  0  0  0  0  0  0  0  0  0
    4.4105    1.8630   24.8539 C   0  0  0  0  0  0  0  0  0  0  0  0
    3.9846    2.7733   23.7403 C   0  0  0  0  0  0  0  0  0  0  0  0
    2.8990    3.7825   23.9702 O   0  0  0  0  0  0  0  0  0  0  0  0
    8.5579   -2.1242   24.2837 C   0  0  0  0  0  0  0  0  0  0  0  0
    7.9128   -3.4423   24.5945 C   0  0  0  0  0  0  0  0  0  0  0  0
    8.7118   -4.5341   25.2424 N   0  0  0  0  0  0  0  0  0  0  0  0
   10.1558   -4.3078   25.5793 C   0  0  0  0  0  0  0  0  0  0  0  0
   10.8009   -2.9898   25.2685 C   0  0  0  0  0  0  0  0  0  0  0  0
   12.2450   -2.7635   25.6055 C   0  0  0  0  0  0  0  0  0  0  0  0
   12.8900   -1.4454   25.2946 C   0  0  0  0  0  0  0  0  0  0  0  0
   12.0911   -0.3536   24.6468 C   0  0  0  0  0  0  0  0  0  0  0  0
   10.6470   -0.5799   24.3098 C   0  0  0  0  0  0  0  0  0  0  0  0
   10.0019   -1.8980   24.6207 C   0  0  0  0  0  0  0  0  0  0  0  0
    4.2184    3.5846   21.2832 C   0  0  0  0  0  0  0  0  0  0  0  0
    0.7771    4.2124   19.4089 C   0  0  0  0  0  0  0  0  0  0  0  0
    2.0605    4.4721   20.1406 N   0  0  0  0  0  0  0  0  0  0  0  0
    2.9350    3.3248   20.5515 C   0  0  0  0  0  0  0  0  0  0  0  0
    2.5260    1.9177   20.2308 O   0  0  0  0  0  0  0  0  0  0  0  0
    2.3289    5.3957   20.3511 H   0  0  0  0  0  0  0  0  0  0  0  0
    6.6961    1.2979   20.7195 C   0  0  0  0  0  0  0  0  0  0  0  0
    6.9090    0.6159   19.4006 O   0  0  0  0  0  0  0  0  0  0  0  0
    5.7512   -0.0190   18.6890 C   0  0  0  0  0  0  0  0  0  0  0  0
    4.9765    0.7635   17.6705 C   0  0  0  0  0  0  0  0  0  0  0  0
    5.3682   -1.4364   18.9958 C   0  0  0  0  0  0  0  0  0  0  0  0
 29 30  1  0  0  0
 30 31  1  0  0  0
 31 32  2  0  0  0
 31 28  1  0  0  0
 28  1  1  0  0  0
  1  2  1  0  0  0
  3  2  1  0  0  0
  3  4  1  0  0  0
  4  5  2  0  0  0
  4  6  1  0  0  0
  6 18  1  0  0  0
 18 19  2  0  0  0
 19 20  1  0  0  0
 20 21  2  0  0  0
 21 22  1  0  0  0
 22 23  2  0  0  0
 23 24  1  0  0  0
 24 25  2  0  0  0
 25 26  1  0  0  0
 26 27  2  0  0  0
  6  7  1  0  0  0
  7  8  1  0  0  0
  8 34  1  0  0  0
 34 35  1  0  0  0
 35 36  1  0  0  0
 36 37  1  0  0  0
 36 38  1  0  0  0
  3  9  1  0  0  0
  9 10  2  0  0  0
 10 11  1  0  0  0
 11 12  1  0  0  0
 11 13  2  0  0  0
 13 14  1  0  0  0
 14 15  2  0  0  0
 15 16  1  0  0  0
 16 17  2  0  0  0
 16  1  1  0  0  0
  8  3  1  0  0  0
 15  9  1  0  0  0
 27 18  1  0  0  0
 27 22  1  0  0  0
 30 33  1  0  0  0
M  END
> <minimizedAffinity>
-7.20234

> <CNNscore>
0.2082495838

> <CNNaffinity>
6.2495355606

> <CNN_VS>
1.3014631271

> <CNNaffinity_variance>
0.0496236645

$$$$
