


 40 44  0  0  0  0  0  0  0  0999 V2000
    6.8590   -3.1612   22.7916 N   0  0  0  0  0  0  0  0  0  0  0  0
    7.1506   -1.7753   22.2975 C   0  0  0  0  0  0  0  0  0  0  0  0
    8.3384   -1.0258   22.8241 C   0  0  0  0  0  0  0  0  0  0  0  0
    9.4832   -0.1583   23.2563 C   0  0  0  0  0  0  0  0  0  0  0  0
   10.4390   -0.1838   24.0061 O   0  0  0  0  0  0  0  0  0  0  0  0
    9.3888    1.1397   22.5104 N   0  0  0  0  0  0  0  0  0  0  0  0
    8.1855    1.0744   21.6171 C   0  0  0  0  0  0  0  0  0  0  0  0
    7.5364   -0.2639   21.8110 C   0  0  0  0  0  0  0  0  0  0  0  0
    9.2347   -1.6622   23.8448 C   0  0  0  0  0  0  0  0  0  0  0  0
   10.4225   -0.9127   24.3713 C   0  0  0  0  0  0  0  0  0  0  0  0
   11.3187   -1.5491   25.3920 C   0  0  0  0  0  0  0  0  0  0  0  0
   12.5065   -0.7996   25.9186 F   0  0  0  0  0  0  0  0  0  0  0  0
   11.0270   -2.9350   25.8861 C   0  0  0  0  0  0  0  0  0  0  0  0
    9.8392   -3.6845   25.3595 C   0  0  0  0  0  0  0  0  0  0  0  0
    8.9431   -3.0481   24.3389 C   0  0  0  0  0  0  0  0  0  0  0  0
    7.7552   -3.7976   23.8122 C   0  0  0  0  0  0  0  0  0  0  0  0
    7.4636   -5.1836   24.3063 O   0  0  0  0  0  0  0  0  0  0  0  0
   10.3319    2.2993   22.6358 C   0  0  0  0  0  0  0  0  0  0  0  0
   11.8106    2.0803   22.5107 C   0  0  0  0  0  0  0  0  0  0  0  0
   12.7538    3.2399   22.6360 N   0  0  0  0  0  0  0  0  0  0  0  0
   12.2183    4.6185   22.8865 C   0  0  0  0  0  0  0  0  0  0  0  0
   10.7396    4.8375   23.0116 C   0  0  0  0  0  0  0  0  0  0  0  0
   10.2041    6.2161   23.2621 C   0  0  0  0  0  0  0  0  0  0  0  0
    8.7254    6.4350   23.3872 C   0  0  0  0  0  0  0  0  0  0  0  0
    7.7823    5.2754   23.2618 C   0  0  0  0  0  0  0  0  0  0  0  0
    8.3178    3.8968   23.0114 C   0  0  0  0  0  0  0  0  0  0  0  0
    9.7964    3.6779   22.8862 C   0  0  0  0  0  0  0  0  0  0  0  0
    5.6711   -3.9107   22.2650 C   0  0  0  0  0  0  0  0  0  0  0  0
    4.4711   -7.0459   24.3817 C   0  0  0  0  0  0  0  0  0  0  0  0
    4.7075   -5.6252   23.9626 N   0  0  0  0  0  0  0  0  0  0  0  0
    5.4347   -5.3315   22.6840 C   0  0  0  0  0  0  0  0  0  0  0  0
    5.9256   -6.4586   21.8245 O   0  0  0  0  0  0  0  0  0  0  0  0
    4.3853   -4.8854   24.5268 H   0  0  0  0  0  0  0  0  0  0  0  0
    6.3020   -0.7543   21.1140 C   0  0  0  0  0  0  0  0  0  0  0  0
    6.1084   -0.4829   19.6516 S   0  0  0  0  0  0  0  0  0  0  0  0
    7.0244    0.7008   19.7500 O   0  0  0  0  0  0  0  0  0  0  0  0
    5.1923   -1.6667   19.5532 O   0  0  0  0  0  0  0  0  0  0  0  0
    5.9148   -0.2116   18.1891 N   0  0  0  0  0  0  0  0  0  0  0  0
    4.8773    0.7744   17.7401 C   0  0  0  0  0  0  0  0  0  0  0  0
    6.4886   -0.6975   17.5000 H   0  0  0  0  0  0  0  0  0  0  0  0
 29 30  1  0  0  0
 30 31  1  0  0  0
 31 32  2  0  0  0
 31 28  1  0  0  0
 28  1  1  0  0  0
  1  2  1  0  0  0
  3  2  1  0  0  0
  3  4  1  0  0  0
  4  5  2  0  0  0
  4  6  1  0  0  0
  6 18  1  0  0  0
 18 19  2  0  0  0
 19 20  1  0  0  0
 20 21  2  0  0  0
 21 22  1  0  0  0
 22 23  2  0  0  0
 23 24  1  0  0  0
 24 25  2  0  0  0
 25 26  1  0  0  0
 26 27  2  0  0  0
  6  7  1  0  0  0
  7  8  1  0  0  0
  8 34  1  0  0  0
 34 35  1  0  0  0
 35 36  2  0  0  0
 35 37  2  0  0  0
 35 38  1  0  0  0
 38 39  1  0  0  0
  3  9  1  0  0  0
  9 10  2  0  0  0
 10 11  1  0  0  0
 11 12  1  0  0  0
 11 13  2  0  0  0
 13 14  1  0  0  0
 14 15  2  0  0  0
 15 16  1  0  0  0
 16 17  2  0  0  0
 16  1  1  0  0  0
  8  3  1  0  0  0
 15  9  1  0  0  0
 27 18  1  0  0  0
 27 22  1  0  0  0
 30 33  1  0  0  0
 38 40  1  0  0  0
M  END
> <minimizedAffinity>
-8.91425

> <CNNscore>
0.5875731707

> <CNNaffinity>
6.9317855835

> <CNN_VS>
4.0729312897

> <CNNaffinity_variance>
0.1720409989

$$$$



 40 44  0  0  0  0  0  0  0  0999 V2000
    9.5652    0.6070   22.6600 N   0  0  0  0  0  0  0  0  0  0  0  0
    8.4307   -0.3688   22.5560 C   0  0  0  0  0  0  0  0  0  0  0  0
    8.4557   -1.6363   23.3577 C   0  0  0  0  0  0  0  0  0  0  0  0
    8.3420   -2.9381   24.0941 C   0  0  0  0  0  0  0  0  0  0  0  0
    8.9587   -3.6105   24.8966 O   0  0  0  0  0  0  0  0  0  0  0  0
    7.0517   -3.5879   23.6905 N   0  0  0  0  0  0  0  0  0  0  0  0
    6.3679   -2.6877   22.7046 C   0  0  0  0  0  0  0  0  0  0  0  0
    7.2356   -1.4815   22.4990 C   0  0  0  0  0  0  0  0  0  0  0  0
    9.6152   -1.9281   24.2635 C   0  0  0  0  0  0  0  0  0  0  0  0
    9.6401   -3.1956   25.0653 C   0  0  0  0  0  0  0  0  0  0  0  0
   10.7996   -3.4873   25.9710 C   0  0  0  0  0  0  0  0  0  0  0  0
   10.8246   -4.7548   26.7728 F   0  0  0  0  0  0  0  0  0  0  0  0
   11.9341   -2.5115   26.0751 C   0  0  0  0  0  0  0  0  0  0  0  0
   11.9091   -1.2441   25.2734 C   0  0  0  0  0  0  0  0  0  0  0  0
   10.7497   -0.9523   24.3676 C   0  0  0  0  0  0  0  0  0  0  0  0
   10.7247    0.3152   23.5658 C   0  0  0  0  0  0  0  0  0  0  0  0
   11.8592    1.2910   23.6699 O   0  0  0  0  0  0  0  0  0  0  0  0
    6.5359   -4.9065   24.1858 C   0  0  0  0  0  0  0  0  0  0  0  0
    7.1366   -6.1846   23.6802 C   0  0  0  0  0  0  0  0  0  0  0  0
    6.6207   -7.5032   24.1755 N   0  0  0  0  0  0  0  0  0  0  0  0
    5.5042   -7.5436   25.1764 C   0  0  0  0  0  0  0  0  0  0  0  0
    4.9035   -6.2654   25.6819 C   0  0  0  0  0  0  0  0  0  0  0  0
    3.7870   -6.3059   26.6828 C   0  0  0  0  0  0  0  0  0  0  0  0
    3.1864   -5.0277   27.1883 C   0  0  0  0  0  0  0  0  0  0  0  0
    3.7022   -3.7091   26.6930 C   0  0  0  0  0  0  0  0  0  0  0  0
    4.8187   -3.6687   25.6922 C   0  0  0  0  0  0  0  0  0  0  0  0
    5.4194   -4.9469   25.1866 C   0  0  0  0  0  0  0  0  0  0  0  0
    9.5402    1.8745   21.8583 C   0  0  0  0  0  0  0  0  0  0  0  0
   11.0206    5.3862   22.9657 C   0  0  0  0  0  0  0  0  0  0  0  0
   10.8798    4.0607   22.2777 N   0  0  0  0  0  0  0  0  0  0  0  0
    9.6810    3.2000   22.5462 C   0  0  0  0  0  0  0  0  0  0  0  0
    8.6230    3.6647   23.5027 O   0  0  0  0  0  0  0  0  0  0  0  0
   11.5741    3.7557   21.6500 H   0  0  0  0  0  0  0  0  0  0  0  0
    6.9358   -0.3238   21.5935 C   0  0  0  0  0  0  0  0  0  0  0  0
    6.1866   -0.5472   20.3134 S   0  0  0  0  0  0  0  0  0  0  0  0
    5.3033   -1.5436   21.0041 O   0  0  0  0  0  0  0  0  0  0  0  0
    7.0699    0.4492   19.6226 O   0  0  0  0  0  0  0  0  0  0  0  0
    5.4375   -0.7705   19.0332 N   0  0  0  0  0  0  0  0  0  0  0  0
    5.2463    0.3622   18.0686 C   0  0  0  0  0  0  0  0  0  0  0  0
    5.0580   -1.6927   18.8186 H   0  0  0  0  0  0  0  0  0  0  0  0
 29 30  1  0  0  0
 30 31  1  0  0  0
 31 32  2  0  0  0
 31 28  1  0  0  0
 28  1  1  0  0  0
  1  2  1  0  0  0
  3  2  1  0  0  0
  3  4  1  0  0  0
  4  5  2  0  0  0
  4  6  1  0  0  0
  6 18  1  0  0  0
 18 19  2  0  0  0
 19 20  1  0  0  0
 20 21  2  0  0  0
 21 22  1  0  0  0
 22 23  2  0  0  0
 23 24  1  0  0  0
 24 25  2  0  0  0
 25 26  1  0  0  0
 26 27  2  0  0  0
  6  7  1  0  0  0
  7  8  1  0  0  0
  8 34  1  0  0  0
 34 35  1  0  0  0
 35 36  2  0  0  0
 35 37  2  0  0  0
 35 38  1  0  0  0
 38 39  1  0  0  0
  3  9  1  0  0  0
  9 10  2  0  0  0
 10 11  1  0  0  0
 11 12  1  0  0  0
 11 13  2  0  0  0
 13 14  1  0  0  0
 14 15  2  0  0  0
 15 16  1  0  0  0
 16 17  2  0  0  0
 16  1  1  0  0  0
  8  3  1  0  0  0
 15  9  1  0  0  0
 27 18  1  0  0  0
 27 22  1  0  0  0
 30 33  1  0  0  0
 38 40  1  0  0  0
M  END
> <minimizedAffinity>
-8.93540

> <CNNscore>
0.5480505228

> <CNNaffinity>
6.9835066795

> <CNN_VS>
3.8273143768

> <CNNaffinity_variance>
0.1113545150

$$$$



 40 44  0  0  0  0  0  0  0  0999 V2000
   10.4531    0.2723   23.7191 N   0  0  0  0  0  0  0  0  0  0  0  0
    9.0382   -0.1568   23.9723 C   0  0  0  0  0  0  0  0  0  0  0  0
    8.7591   -1.3374   24.8544 C   0  0  0  0  0  0  0  0  0  0  0  0
    8.3275   -2.4921   25.7091 C   0  0  0  0  0  0  0  0  0  0  0  0
    8.8069   -3.3693   26.3998 O   0  0  0  0  0  0  0  0  0  0  0  0
    6.8291   -2.5555   25.6804 N   0  0  0  0  0  0  0  0  0  0  0  0
    6.3346   -1.4400   24.8079 C   0  0  0  0  0  0  0  0  0  0  0  0
    7.5274   -0.6872   24.2975 C   0  0  0  0  0  0  0  0  0  0  0  0
    9.8947   -2.0890   25.4834 C   0  0  0  0  0  0  0  0  0  0  0  0
    9.6155   -3.2695   26.3655 C   0  0  0  0  0  0  0  0  0  0  0  0
   10.7512   -4.0210   26.9944 C   0  0  0  0  0  0  0  0  0  0  0  0
   10.4720   -5.2017   27.8766 F   0  0  0  0  0  0  0  0  0  0  0  0
   12.1660   -3.5919   26.7412 C   0  0  0  0  0  0  0  0  0  0  0  0
   12.4452   -2.4113   25.8591 C   0  0  0  0  0  0  0  0  0  0  0  0
   11.3096   -1.6598   25.2302 C   0  0  0  0  0  0  0  0  0  0  0  0
   11.5887   -0.4792   24.3480 C   0  0  0  0  0  0  0  0  0  0  0  0
   13.0035   -0.0501   24.0947 O   0  0  0  0  0  0  0  0  0  0  0  0
    5.9751   -3.5583   26.3980 C   0  0  0  0  0  0  0  0  0  0  0  0
    5.5322   -4.8068   25.6942 C   0  0  0  0  0  0  0  0  0  0  0  0
    4.6783   -5.8096   26.4119 N   0  0  0  0  0  0  0  0  0  0  0  0
    4.2673   -5.5640   27.8334 C   0  0  0  0  0  0  0  0  0  0  0  0
    4.7101   -4.3156   28.5372 C   0  0  0  0  0  0  0  0  0  0  0  0
    4.2991   -4.0701   29.9588 C   0  0  0  0  0  0  0  0  0  0  0  0
    4.7420   -2.8216   30.6626 C   0  0  0  0  0  0  0  0  0  0  0  0
    5.5959   -1.8188   29.9449 C   0  0  0  0  0  0  0  0  0  0  0  0
    6.0070   -2.0644   28.5234 C   0  0  0  0  0  0  0  0  0  0  0  0
    5.5641   -3.3128   27.8195 C   0  0  0  0  0  0  0  0  0  0  0  0
   10.7322    1.4530   22.8369 C   0  0  0  0  0  0  0  0  0  0  0  0
    8.2316    4.5170   23.1664 C   0  0  0  0  0  0  0  0  0  0  0  0
    9.3258    3.5403   23.4809 N   0  0  0  0  0  0  0  0  0  0  0  0
    9.6380    2.4296   22.5224 C   0  0  0  0  0  0  0  0  0  0  0  0
    8.8559    2.2954   21.2494 O   0  0  0  0  0  0  0  0  0  0  0  0
    9.8391    3.6284   24.3163 H   0  0  0  0  0  0  0  0  0  0  0  0
    7.4943    0.5063   23.3895 C   0  0  0  0  0  0  0  0  0  0  0  0
    6.1861    1.1620   23.0600 S   0  0  0  0  0  0  0  0  0  0  0  0
    6.1123    0.3745   21.7855 O   0  0  0  0  0  0  0  0  0  0  0  0
    6.2599    1.9496   24.3346 O   0  0  0  0  0  0  0  0  0  0  0  0
    4.8779    1.8178   22.7306 N   0  0  0  0  0  0  0  0  0  0  0  0
    3.5882    1.1433   23.0939 C   0  0  0  0  0  0  0  0  0  0  0  0
    4.8653    2.7224   22.2595 H   0  0  0  0  0  0  0  0  0  0  0  0
 29 30  1  0  0  0
 30 31  1  0  0  0
 31 32  2  0  0  0
 31 28  1  0  0  0
 28  1  1  0  0  0
  1  2  1  0  0  0
  3  2  1  0  0  0
  3  4  1  0  0  0
  4  5  2  0  0  0
  4  6  1  0  0  0
  6 18  1  0  0  0
 18 19  2  0  0  0
 19 20  1  0  0  0
 20 21  2  0  0  0
 21 22  1  0  0  0
 22 23  2  0  0  0
 23 24  1  0  0  0
 24 25  2  0  0  0
 25 26  1  0  0  0
 26 27  2  0  0  0
  6  7  1  0  0  0
  7  8  1  0  0  0
  8 34  1  0  0  0
 34 35  1  0  0  0
 35 36  2  0  0  0
 35 37  2  0  0  0
 35 38  1  0  0  0
 38 39  1  0  0  0
  3  9  1  0  0  0
  9 10  2  0  0  0
 10 11  1  0  0  0
 11 12  1  0  0  0
 11 13  2  0  0  0
 13 14  1  0  0  0
 14 15  2  0  0  0
 15 16  1  0  0  0
 16 17  2  0  0  0
 16  1  1  0  0  0
  8  3  1  0  0  0
 15  9  1  0  0  0
 27 18  1  0  0  0
 27 22  1  0  0  0
 30 33  1  0  0  0
 38 40  1  0  0  0
M  END
> <minimizedAffinity>
-7.58282

> <CNNscore>
0.4314064384

> <CNNaffinity>
6.5701789856

> <CNN_VS>
2.8344175816

> <CNNaffinity_variance>
0.1267947257

$$$$



 40 44  0  0  0  0  0  0  0  0999 V2000
    7.1124   -3.1540   23.8002 N   0  0  0  0  0  0  0  0  0  0  0  0
    7.2141   -1.7565   23.2649 C   0  0  0  0  0  0  0  0  0  0  0  0
    8.4674   -0.9607   23.4789 C   0  0  0  0  0  0  0  0  0  0  0  0
    9.6505   -0.0486   23.6143 C   0  0  0  0  0  0  0  0  0  0  0  0
   10.7668   -0.0370   24.0940 O   0  0  0  0  0  0  0  0  0  0  0  0
    9.3182    1.2459   22.9333 N   0  0  0  0  0  0  0  0  0  0  0  0
    7.9296    1.1339   22.3770 C   0  0  0  0  0  0  0  0  0  0  0  0
    7.4038   -0.2299   22.7142 C   0  0  0  0  0  0  0  0  0  0  0  0
    9.6191   -1.5625   24.2284 C   0  0  0  0  0  0  0  0  0  0  0  0
   10.8724   -0.7667   24.4424 C   0  0  0  0  0  0  0  0  0  0  0  0
   12.0240   -1.3684   25.1918 C   0  0  0  0  0  0  0  0  0  0  0  0
   13.2774   -0.5726   25.4060 F   0  0  0  0  0  0  0  0  0  0  0  0
   11.9223   -2.7659   25.7272 C   0  0  0  0  0  0  0  0  0  0  0  0
   10.6690   -3.5617   25.5131 C   0  0  0  0  0  0  0  0  0  0  0  0
    9.5174   -2.9600   24.7637 C   0  0  0  0  0  0  0  0  0  0  0  0
    8.2640   -3.7558   24.5496 C   0  0  0  0  0  0  0  0  0  0  0  0
    8.1623   -5.1533   25.0849 O   0  0  0  0  0  0  0  0  0  0  0  0
   10.2166    2.4423   22.8272 C   0  0  0  0  0  0  0  0  0  0  0  0
   11.6749    2.2609   22.5262 C   0  0  0  0  0  0  0  0  0  0  0  0
   12.5733    3.4574   22.4201 N   0  0  0  0  0  0  0  0  0  0  0  0
   12.0135    4.8353   22.6150 C   0  0  0  0  0  0  0  0  0  0  0  0
   10.5553    5.0167   22.9160 C   0  0  0  0  0  0  0  0  0  0  0  0
    9.9954    6.3947   23.1109 C   0  0  0  0  0  0  0  0  0  0  0  0
    8.5372    6.5760   23.4119 C   0  0  0  0  0  0  0  0  0  0  0  0
    7.6387    5.3796   23.5180 C   0  0  0  0  0  0  0  0  0  0  0  0
    8.1985    4.0017   23.3231 C   0  0  0  0  0  0  0  0  0  0  0  0
    9.6568    3.8202   23.0221 C   0  0  0  0  0  0  0  0  0  0  0  0
    5.8589   -3.9498   23.5861 C   0  0  0  0  0  0  0  0  0  0  0  0
    5.5874   -6.6781   20.7169 C   0  0  0  0  0  0  0  0  0  0  0  0
    5.8553   -6.0452   22.0501 N   0  0  0  0  0  0  0  0  0  0  0  0
    5.5910   -4.5827   22.2528 C   0  0  0  0  0  0  0  0  0  0  0  0
    5.0586   -3.7530   21.1221 O   0  0  0  0  0  0  0  0  0  0  0  0
    6.2047   -6.5898   22.7922 H   0  0  0  0  0  0  0  0  0  0  0  0
    6.0518   -0.7683   22.3506 C   0  0  0  0  0  0  0  0  0  0  0  0
    5.1139    0.0576   21.5212 S   0  0  0  0  0  0  0  0  0  0  0  0
    4.4867    0.6005   22.7710 O   0  0  0  0  0  0  0  0  0  0  0  0
    5.7410   -0.4852   20.2714 O   0  0  0  0  0  0  0  0  0  0  0  0
    4.1759    0.8836   20.6918 N   0  0  0  0  0  0  0  0  0  0  0  0
    4.4974    2.3198   20.4018 C   0  0  0  0  0  0  0  0  0  0  0  0
    3.3194    0.4686   20.3249 H   0  0  0  0  0  0  0  0  0  0  0  0
 29 30  1  0  0  0
 30 31  1  0  0  0
 31 32  2  0  0  0
 31 28  1  0  0  0
 28  1  1  0  0  0
  1  2  1  0  0  0
  3  2  1  0  0  0
  3  4  1  0  0  0
  4  5  2  0  0  0
  4  6  1  0  0  0
  6 18  1  0  0  0
 18 19  2  0  0  0
 19 20  1  0  0  0
 20 21  2  0  0  0
 21 22  1  0  0  0
 22 23  2  0  0  0
 23 24  1  0  0  0
 24 25  2  0  0  0
 25 26  1  0  0  0
 26 27  2  0  0  0
  6  7  1  0  0  0
  7  8  1  0  0  0
  8 34  1  0  0  0
 34 35  1  0  0  0
 35 36  2  0  0  0
 35 37  2  0  0  0
 35 38  1  0  0  0
 38 39  1  0  0  0
  3  9  1  0  0  0
  9 10  2  0  0  0
 10 11  1  0  0  0
 11 12  1  0  0  0
 11 13  2  0  0  0
 13 14  1  0  0  0
 14 15  2  0  0  0
 15 16  1  0  0  0
 16 17  2  0  0  0
 16  1  1  0  0  0
  8  3  1  0  0  0
 15  9  1  0  0  0
 27 18  1  0  0  0
 27 22  1  0  0  0
 30 33  1  0  0  0
 38 40  1  0  0  0
M  END
> <minimizedAffinity>
-7.63301

> <CNNscore>
0.4099646807

> <CNNaffinity>
6.8633041382

> <CNN_VS>
2.8137123585

> <CNNaffinity_variance>
0.0713582560

$$$$



 40 44  0  0  0  0  0  0  0  0999 V2000
   10.5687    0.4890   23.2195 N   0  0  0  0  0  0  0  0  0  0  0  0
    9.1634   -0.0139   23.3684 C   0  0  0  0  0  0  0  0  0  0  0  0
    8.8798   -1.2000   24.2416 C   0  0  0  0  0  0  0  0  0  0  0  0
    8.4453   -2.3688   25.0754 C   0  0  0  0  0  0  0  0  0  0  0  0
    8.9158   -3.2126   25.8123 O   0  0  0  0  0  0  0  0  0  0  0  0
    6.9592   -2.5135   24.9320 N   0  0  0  0  0  0  0  0  0  0  0  0
    6.4752   -1.4341   24.0097 C   0  0  0  0  0  0  0  0  0  0  0  0
    7.6623   -0.6224   23.5830 C   0  0  0  0  0  0  0  0  0  0  0  0
   10.0017   -1.8834   24.9660 C   0  0  0  0  0  0  0  0  0  0  0  0
    9.7181   -3.0696   25.8392 C   0  0  0  0  0  0  0  0  0  0  0  0
   10.8399   -3.7529   26.5635 C   0  0  0  0  0  0  0  0  0  0  0  0
   10.5564   -4.9391   27.4368 F   0  0  0  0  0  0  0  0  0  0  0  0
   12.2452   -3.2500   26.4146 C   0  0  0  0  0  0  0  0  0  0  0  0
   12.5288   -2.0639   25.5413 C   0  0  0  0  0  0  0  0  0  0  0  0
   11.4070   -1.3805   24.8170 C   0  0  0  0  0  0  0  0  0  0  0  0
   11.6905   -0.1943   23.9438 C   0  0  0  0  0  0  0  0  0  0  0  0
   13.0958    0.3085   23.7948 O   0  0  0  0  0  0  0  0  0  0  0  0
    6.1068   -3.5548   25.5947 C   0  0  0  0  0  0  0  0  0  0  0  0
    5.6808   -4.7730   24.8302 C   0  0  0  0  0  0  0  0  0  0  0  0
    4.8284   -5.8143   25.4929 N   0  0  0  0  0  0  0  0  0  0  0  0
    4.4019   -5.6373   26.9200 C   0  0  0  0  0  0  0  0  0  0  0  0
    4.8278   -4.4190   27.6845 C   0  0  0  0  0  0  0  0  0  0  0  0
    4.4013   -4.2420   29.1117 C   0  0  0  0  0  0  0  0  0  0  0  0
    4.8273   -3.0237   29.8761 C   0  0  0  0  0  0  0  0  0  0  0  0
    5.6797   -1.9824   29.2134 C   0  0  0  0  0  0  0  0  0  0  0  0
    6.1062   -2.1595   27.7863 C   0  0  0  0  0  0  0  0  0  0  0  0
    5.6803   -3.3777   27.0218 C   0  0  0  0  0  0  0  0  0  0  0  0
   10.8522    1.6752   22.3462 C   0  0  0  0  0  0  0  0  0  0  0  0
    9.0508    5.0947   23.2473 C   0  0  0  0  0  0  0  0  0  0  0  0
    9.2782    3.7072   22.7246 N   0  0  0  0  0  0  0  0  0  0  0  0
   10.6249    3.0627   22.8688 C   0  0  0  0  0  0  0  0  0  0  0  0
   11.7444    3.8057   23.5358 O   0  0  0  0  0  0  0  0  0  0  0  0
    8.5434    3.2195   22.2869 H   0  0  0  0  0  0  0  0  0  0  0  0
    7.6362    0.5596   22.6598 C   0  0  0  0  0  0  0  0  0  0  0  0
    7.3250    0.3682   21.2050 S   0  0  0  0  0  0  0  0  0  0  0  0
    6.9634   -1.0631   21.4705 O   0  0  0  0  0  0  0  0  0  0  0  0
    7.6867    1.7996   20.9394 O   0  0  0  0  0  0  0  0  0  0  0  0
    7.0138    0.1770   19.7502 N   0  0  0  0  0  0  0  0  0  0  0  0
    5.5977   -0.0481   19.3093 C   0  0  0  0  0  0  0  0  0  0  0  0
    7.7651    0.2000   19.0606 H   0  0  0  0  0  0  0  0  0  0  0  0
 29 30  1  0  0  0
 30 31  1  0  0  0
 31 32  2  0  0  0
 31 28  1  0  0  0
 28  1  1  0  0  0
  1  2  1  0  0  0
  3  2  1  0  0  0
  3  4  1  0  0  0
  4  5  2  0  0  0
  4  6  1  0  0  0
  6 18  1  0  0  0
 18 19  2  0  0  0
 19 20  1  0  0  0
 20 21  2  0  0  0
 21 22  1  0  0  0
 22 23  2  0  0  0
 23 24  1  0  0  0
 24 25  2  0  0  0
 25 26  1  0  0  0
 26 27  2  0  0  0
  6  7  1  0  0  0
  7  8  1  0  0  0
  8 34  1  0  0  0
 34 35  1  0  0  0
 35 36  2  0  0  0
 35 37  2  0  0  0
 35 38  1  0  0  0
 38 39  1  0  0  0
  3  9  1  0  0  0
  9 10  2  0  0  0
 10 11  1  0  0  0
 11 12  1  0  0  0
 11 13  2  0  0  0
 13 14  1  0  0  0
 14 15  2  0  0  0
 15 16  1  0  0  0
 16 17  2  0  0  0
 16  1  1  0  0  0
  8  3  1  0  0  0
 15  9  1  0  0  0
 27 18  1  0  0  0
 27 22  1  0  0  0
 30 33  1  0  0  0
 38 40  1  0  0  0
M  END
> <minimizedAffinity>
-8.19119

> <CNNscore>
0.3605870306

> <CNNaffinity>
6.7367172241

> <CNN_VS>
2.4291727543

> <CNNaffinity_variance>
0.0614085495

$$$$



 40 44  0  0  0  0  0  0  0  0999 V2000
    4.7410    4.1323   22.8921 N   0  0  0  0  0  0  0  0  0  0  0  0
    5.4589    2.8317   22.6846 C   0  0  0  0  0  0  0  0  0  0  0  0
    6.0441    2.1027   23.8576 C   0  0  0  0  0  0  0  0  0  0  0  0
    6.6774    1.2646   24.9283 C   0  0  0  0  0  0  0  0  0  0  0  0
    6.8480    1.2645   26.1313 O   0  0  0  0  0  0  0  0  0  0  0  0
    7.2795    0.0557   24.2755 N   0  0  0  0  0  0  0  0  0  0  0  0
    7.0183    0.1467   22.8012 C   0  0  0  0  0  0  0  0  0  0  0  0
    6.2548    1.4118   22.5429 C   0  0  0  0  0  0  0  0  0  0  0  0
    5.9114    2.6742   25.2381 C   0  0  0  0  0  0  0  0  0  0  0  0
    6.4966    1.9451   26.4111 C   0  0  0  0  0  0  0  0  0  0  0  0
    6.3638    2.5166   27.7916 C   0  0  0  0  0  0  0  0  0  0  0  0
    6.9490    1.7875   28.9647 F   0  0  0  0  0  0  0  0  0  0  0  0
    5.6459    3.8172   27.9990 C   0  0  0  0  0  0  0  0  0  0  0  0
    5.0607    4.5463   26.8261 C   0  0  0  0  0  0  0  0  0  0  0  0
    5.1934    3.9747   25.4456 C   0  0  0  0  0  0  0  0  0  0  0  0
    4.6082    4.7038   24.2725 C   0  0  0  0  0  0  0  0  0  0  0  0
    3.8903    6.0044   24.4800 O   0  0  0  0  0  0  0  0  0  0  0  0
    8.0139   -1.0499   24.9742 C   0  0  0  0  0  0  0  0  0  0  0  0
    7.2486   -2.1257   25.6863 C   0  0  0  0  0  0  0  0  0  0  0  0
    7.9830   -3.2313   26.3851 N   0  0  0  0  0  0  0  0  0  0  0  0
    9.4826   -3.2612   26.3717 C   0  0  0  0  0  0  0  0  0  0  0  0
   10.2479   -2.1854   25.6595 C   0  0  0  0  0  0  0  0  0  0  0  0
   11.7476   -2.2153   25.6462 C   0  0  0  0  0  0  0  0  0  0  0  0
   12.5128   -1.1395   24.9340 C   0  0  0  0  0  0  0  0  0  0  0  0
   11.7784   -0.0339   24.2353 C   0  0  0  0  0  0  0  0  0  0  0  0
   10.2788   -0.0040   24.2487 C   0  0  0  0  0  0  0  0  0  0  0  0
    9.5135   -1.0798   24.9608 C   0  0  0  0  0  0  0  0  0  0  0  0
    4.1558    4.8614   21.7190 C   0  0  0  0  0  0  0  0  0  0  0  0
    0.7256    5.0551   19.7325 C   0  0  0  0  0  0  0  0  0  0  0  0
    2.1087    5.3878   20.2083 N   0  0  0  0  0  0  0  0  0  0  0  0
    2.7727    4.5287   21.2432 C   0  0  0  0  0  0  0  0  0  0  0  0
    2.0536    3.3369   21.8023 O   0  0  0  0  0  0  0  0  0  0  0  0
    2.5806    6.1700   19.8413 H   0  0  0  0  0  0  0  0  0  0  0  0
    5.7845    1.9002   21.2049 C   0  0  0  0  0  0  0  0  0  0  0  0
    5.4864    0.9187   20.1106 S   0  0  0  0  0  0  0  0  0  0  0  0
    4.0375    0.9258   20.4988 O   0  0  0  0  0  0  0  0  0  0  0  0
    6.9353    0.9115   19.7223 O   0  0  0  0  0  0  0  0  0  0  0  0
    5.1883   -0.0629   19.0162 N   0  0  0  0  0  0  0  0  0  0  0  0
    4.9918    0.4191   17.6093 C   0  0  0  0  0  0  0  0  0  0  0  0
    5.1193   -1.0581   19.2286 H   0  0  0  0  0  0  0  0  0  0  0  0
 29 30  1  0  0  0
 30 31  1  0  0  0
 31 32  2  0  0  0
 31 28  1  0  0  0
 28  1  1  0  0  0
  1  2  1  0  0  0
  3  2  1  0  0  0
  3  4  1  0  0  0
  4  5  2  0  0  0
  4  6  1  0  0  0
  6 18  1  0  0  0
 18 19  2  0  0  0
 19 20  1  0  0  0
 20 21  2  0  0  0
 21 22  1  0  0  0
 22 23  2  0  0  0
 23 24  1  0  0  0
 24 25  2  0  0  0
 25 26  1  0  0  0
 26 27  2  0  0  0
  6  7  1  0  0  0
  7  8  1  0  0  0
  8 34  1  0  0  0
 34 35  1  0  0  0
 35 36  2  0  0  0
 35 37  2  0  0  0
 35 38  1  0  0  0
 38 39  1  0  0  0
  3  9  1  0  0  0
  9 10  2  0  0  0
 10 11  1  0  0  0
 11 12  1  0  0  0
 11 13  2  0  0  0
 13 14  1  0  0  0
 14 15  2  0  0  0
 15 16  1  0  0  0
 16 17  2  0  0  0
 16  1  1  0  0  0
  8  3  1  0  0  0
 15  9  1  0  0  0
 27 18  1  0  0  0
 27 22  1  0  0  0
 30 33  1  0  0  0
 38 40  1  0  0  0
M  END
> <minimizedAffinity>
-7.07303

> <CNNscore>
0.3344421387

> <CNNaffinity>
6.3250494003

> <CNN_VS>
2.1153631210

> <CNNaffinity_variance>
0.0637470931

$$$$



 40 44  0  0  0  0  0  0  0  0999 V2000
    4.9069    1.3496   21.9294 N   0  0  0  0  0  0  0  0  0  0  0  0
    5.8423    0.1882   22.0914 C   0  0  0  0  0  0  0  0  0  0  0  0
    7.2785    0.4266   22.4528 C   0  0  0  0  0  0  0  0  0  0  0  0
    8.7330    0.5092   22.8100 C   0  0  0  0  0  0  0  0  0  0  0  0
    9.5838    1.3391   23.0625 O   0  0  0  0  0  0  0  0  0  0  0  0
    9.2771   -0.8876   22.8640 N   0  0  0  0  0  0  0  0  0  0  0  0
    8.1588   -1.8335   22.5402 C   0  0  0  0  0  0  0  0  0  0  0  0
    6.9236   -1.0212   22.2861 C   0  0  0  0  0  0  0  0  0  0  0  0
    7.7792    1.8265   22.6523 C   0  0  0  0  0  0  0  0  0  0  0  0
    9.2154    2.0649   23.0136 C   0  0  0  0  0  0  0  0  0  0  0  0
    9.7161    3.4647   23.2131 C   0  0  0  0  0  0  0  0  0  0  0  0
   11.1523    3.7032   23.5745 F   0  0  0  0  0  0  0  0  0  0  0  0
    8.7806    4.6261   23.0511 C   0  0  0  0  0  0  0  0  0  0  0  0
    7.3445    4.3877   22.6897 C   0  0  0  0  0  0  0  0  0  0  0  0
    6.8438    2.9879   22.4903 C   0  0  0  0  0  0  0  0  0  0  0  0
    5.4076    2.7494   22.1289 C   0  0  0  0  0  0  0  0  0  0  0  0
    4.4722    3.9107   21.9669 O   0  0  0  0  0  0  0  0  0  0  0  0
   10.6911   -1.2712   23.1853 C   0  0  0  0  0  0  0  0  0  0  0  0
   11.8021   -0.8904   22.2521 C   0  0  0  0  0  0  0  0  0  0  0  0
   13.2162   -1.2740   22.5735 N   0  0  0  0  0  0  0  0  0  0  0  0
   13.5193   -2.0383   23.8281 C   0  0  0  0  0  0  0  0  0  0  0  0
   12.4083   -2.4190   24.7613 C   0  0  0  0  0  0  0  0  0  0  0  0
   12.7115   -3.1833   26.0159 C   0  0  0  0  0  0  0  0  0  0  0  0
   11.6004   -3.5640   26.9491 C   0  0  0  0  0  0  0  0  0  0  0  0
   10.1864   -3.1805   26.6277 C   0  0  0  0  0  0  0  0  0  0  0  0
    9.8833   -2.4162   25.3731 C   0  0  0  0  0  0  0  0  0  0  0  0
   10.9942   -2.0354   24.4399 C   0  0  0  0  0  0  0  0  0  0  0  0
    3.4707    1.1111   21.5680 C   0  0  0  0  0  0  0  0  0  0  0  0
    1.1911    3.8257   19.7837 C   0  0  0  0  0  0  0  0  0  0  0  0
    1.8401    3.0052   20.8587 N   0  0  0  0  0  0  0  0  0  0  0  0
    2.8217    1.9316   20.4931 C   0  0  0  0  0  0  0  0  0  0  0  0
    3.1542    1.6783   19.0524 O   0  0  0  0  0  0  0  0  0  0  0  0
    1.6219    3.1715   21.8042 H   0  0  0  0  0  0  0  0  0  0  0  0
    5.5710   -1.5619   21.9281 C   0  0  0  0  0  0  0  0  0  0  0  0
    5.3581   -3.0432   21.8273 S   0  0  0  0  0  0  0  0  0  0  0  0
    5.5271   -3.1686   23.3125 O   0  0  0  0  0  0  0  0  0  0  0  0
    5.1891   -2.9179   20.3421 O   0  0  0  0  0  0  0  0  0  0  0  0
    5.1451   -4.5246   21.7265 N   0  0  0  0  0  0  0  0  0  0  0  0
    4.8442   -5.3248   22.9591 C   0  0  0  0  0  0  0  0  0  0  0  0
    5.2050   -4.9879   20.8197 H   0  0  0  0  0  0  0  0  0  0  0  0
 29 30  1  0  0  0
 30 31  1  0  0  0
 31 32  2  0  0  0
 31 28  1  0  0  0
 28  1  1  0  0  0
  1  2  1  0  0  0
  3  2  1  0  0  0
  3  4  1  0  0  0
  4  5  2  0  0  0
  4  6  1  0  0  0
  6 18  1  0  0  0
 18 19  2  0  0  0
 19 20  1  0  0  0
 20 21  2  0  0  0
 21 22  1  0  0  0
 22 23  2  0  0  0
 23 24  1  0  0  0
 24 25  2  0  0  0
 25 26  1  0  0  0
 26 27  2  0  0  0
  6  7  1  0  0  0
  7  8  1  0  0  0
  8 34  1  0  0  0
 34 35  1  0  0  0
 35 36  2  0  0  0
 35 37  2  0  0  0
 35 38  1  0  0  0
 38 39  1  0  0  0
  3  9  1  0  0  0
  9 10  2  0  0  0
 10 11  1  0  0  0
 11 12  1  0  0  0
 11 13  2  0  0  0
 13 14  1  0  0  0
 14 15  2  0  0  0
 15 16  1  0  0  0
 16 17  2  0  0  0
 16  1  1  0  0  0
  8  3  1  0  0  0
 15  9  1  0  0  0
 27 18  1  0  0  0
 27 22  1  0  0  0
 30 33  1  0  0  0
 38 40  1  0  0  0
M  END
> <minimizedAffinity>
-7.30876

> <CNNscore>
0.3330320120

> <CNNaffinity>
6.6946616173

> <CNN_VS>
2.2295365334

> <CNNaffinity_variance>
0.1044599637

$$$$



 40 44  0  0  0  0  0  0  0  0999 V2000
   10.5879    0.1663   22.8451 N   0  0  0  0  0  0  0  0  0  0  0  0
    9.3579   -0.6770   22.6840 C   0  0  0  0  0  0  0  0  0  0  0  0
    9.2001   -1.9344   23.4865 C   0  0  0  0  0  0  0  0  0  0  0  0
    8.9043   -3.2108   24.2168 C   0  0  0  0  0  0  0  0  0  0  0  0
    9.4004   -3.9430   25.0499 O   0  0  0  0  0  0  0  0  0  0  0  0
    7.5713   -3.7146   23.7484 N   0  0  0  0  0  0  0  0  0  0  0  0
    7.0433   -2.7496   22.7286 C   0  0  0  0  0  0  0  0  0  0  0  0
    8.0500   -1.6494   22.5668 C   0  0  0  0  0  0  0  0  0  0  0  0
   10.2724   -2.3485   24.4503 C   0  0  0  0  0  0  0  0  0  0  0  0
   10.1147   -3.6059   25.2528 C   0  0  0  0  0  0  0  0  0  0  0  0
   11.1869   -4.0200   26.2165 C   0  0  0  0  0  0  0  0  0  0  0  0
   11.0292   -5.2774   27.0191 F   0  0  0  0  0  0  0  0  0  0  0  0
   12.4169   -3.1767   26.3777 C   0  0  0  0  0  0  0  0  0  0  0  0
   12.5747   -1.9193   25.5752 C   0  0  0  0  0  0  0  0  0  0  0  0
   11.5024   -1.5052   24.6115 C   0  0  0  0  0  0  0  0  0  0  0  0
   11.6601   -0.2478   23.8088 C   0  0  0  0  0  0  0  0  0  0  0  0
   12.8901    0.5955   23.9700 O   0  0  0  0  0  0  0  0  0  0  0  0
    6.8866   -4.9641   24.2174 C   0  0  0  0  0  0  0  0  0  0  0  0
    7.3135   -6.2991   23.6830 C   0  0  0  0  0  0  0  0  0  0  0  0
    6.6288   -7.5486   24.1520 N   0  0  0  0  0  0  0  0  0  0  0  0
    5.5172   -7.4630   25.1555 C   0  0  0  0  0  0  0  0  0  0  0  0
    5.0903   -6.1281   25.6900 C   0  0  0  0  0  0  0  0  0  0  0  0
    3.9787   -6.0426   26.6935 C   0  0  0  0  0  0  0  0  0  0  0  0
    3.5519   -4.7076   27.2279 C   0  0  0  0  0  0  0  0  0  0  0  0
    4.2366   -3.4581   26.7589 C   0  0  0  0  0  0  0  0  0  0  0  0
    5.3482   -3.5436   25.7554 C   0  0  0  0  0  0  0  0  0  0  0  0
    5.7750   -4.8786   25.2209 C   0  0  0  0  0  0  0  0  0  0  0  0
   10.7456    1.4237   22.0425 C   0  0  0  0  0  0  0  0  0  0  0  0
   10.7600    5.2835   22.9654 C   0  0  0  0  0  0  0  0  0  0  0  0
   11.1703    3.9643   22.3811 N   0  0  0  0  0  0  0  0  0  0  0  0
   10.3352    2.7428   22.6269 C   0  0  0  0  0  0  0  0  0  0  0  0
    9.0897    2.8404   23.4571 O   0  0  0  0  0  0  0  0  0  0  0  0
   11.9878    3.9002   21.8362 H   0  0  0  0  0  0  0  0  0  0  0  0
    7.9279   -0.4710   21.6467 C   0  0  0  0  0  0  0  0  0  0  0  0
    9.0039    0.5736   21.6190 S   0  0  0  0  0  0  0  0  0  0  0  0
    8.0154    1.5783   21.1057 O   0  0  0  0  0  0  0  0  0  0  0  0
    9.9924   -0.4310   22.1324 O   0  0  0  0  0  0  0  0  0  0  0  0
   10.0799    1.6183   21.5914 N   0  0  0  0  0  0  0  0  0  0  0  0
   11.0082    1.7701   22.7599 C   0  0  0  0  0  0  0  0  0  0  0  0
   10.1805    2.2254   20.7779 H   0  0  0  0  0  0  0  0  0  0  0  0
 29 30  1  0  0  0
 30 31  1  0  0  0
 31 32  2  0  0  0
 31 28  1  0  0  0
 28  1  1  0  0  0
  1  2  1  0  0  0
  3  2  1  0  0  0
  3  4  1  0  0  0
  4  5  2  0  0  0
  4  6  1  0  0  0
  6 18  1  0  0  0
 18 19  2  0  0  0
 19 20  1  0  0  0
 20 21  2  0  0  0
 21 22  1  0  0  0
 22 23  2  0  0  0
 23 24  1  0  0  0
 24 25  2  0  0  0
 25 26  1  0  0  0
 26 27  2  0  0  0
  6  7  1  0  0  0
  7  8  1  0  0  0
  8 34  1  0  0  0
 34 35  1  0  0  0
 35 36  2  0  0  0
 35 37  2  0  0  0
 35 38  1  0  0  0
 38 39  1  0  0  0
  3  9  1  0  0  0
  9 10  2  0  0  0
 10 11  1  0  0  0
 11 12  1  0  0  0
 11 13  2  0  0  0
 13 14  1  0  0  0
 14 15  2  0  0  0
 15 16  1  0  0  0
 16 17  2  0  0  0
 16  1  1  0  0  0
  8  3  1  0  0  0
 15  9  1  0  0  0
 27 18  1  0  0  0
 27 22  1  0  0  0
 30 33  1  0  0  0
 38 40  1  0  0  0
M  END
> <minimizedAffinity>
-7.87103

> <CNNscore>
0.3060630858

> <CNNaffinity>
6.4572792053

> <CNN_VS>
1.9763348103

> <CNNaffinity_variance>
0.4000499249

$$$$



 40 44  0  0  0  0  0  0  0  0999 V2000
   10.7372    1.4938   22.7361 N   0  0  0  0  0  0  0  0  0  0  0  0
    9.3307    1.0925   23.0687 C   0  0  0  0  0  0  0  0  0  0  0  0
    9.0787   -0.0682   23.9848 C   0  0  0  0  0  0  0  0  0  0  0  0
    8.6735   -1.2009   24.8808 C   0  0  0  0  0  0  0  0  0  0  0  0
    9.1739   -2.0740   25.5616 O   0  0  0  0  0  0  0  0  0  0  0  0
    7.1748   -1.2400   24.9296 N   0  0  0  0  0  0  0  0  0  0  0  0
    6.6537   -0.1315   24.0638 C   0  0  0  0  0  0  0  0  0  0  0  0
    7.8304    0.5928   23.4799 C   0  0  0  0  0  0  0  0  0  0  0  0
   10.2332   -0.8276   24.5683 C   0  0  0  0  0  0  0  0  0  0  0  0
    9.9812   -1.9882   25.4844 C   0  0  0  0  0  0  0  0  0  0  0  0
   11.1357   -2.7476   26.0679 C   0  0  0  0  0  0  0  0  0  0  0  0
   10.8837   -3.9083   26.9841 F   0  0  0  0  0  0  0  0  0  0  0  0
   12.5422   -2.3463   25.7353 C   0  0  0  0  0  0  0  0  0  0  0  0
   12.7942   -1.1856   24.8192 C   0  0  0  0  0  0  0  0  0  0  0  0
   11.6397   -0.4263   24.2357 C   0  0  0  0  0  0  0  0  0  0  0  0
   11.8917    0.7345   23.3196 C   0  0  0  0  0  0  0  0  0  0  0  0
   13.2983    1.1358   22.9869 O   0  0  0  0  0  0  0  0  0  0  0  0
    6.3432   -2.2163   25.7076 C   0  0  0  0  0  0  0  0  0  0  0  0
    6.0897   -3.5894   25.1596 C   0  0  0  0  0  0  0  0  0  0  0  0
    5.2581   -4.5657   25.9376 N   0  0  0  0  0  0  0  0  0  0  0  0
    4.6799   -4.1688   27.2636 C   0  0  0  0  0  0  0  0  0  0  0  0
    4.9334   -2.7957   27.8116 C   0  0  0  0  0  0  0  0  0  0  0  0
    4.3552   -2.3988   29.1376 C   0  0  0  0  0  0  0  0  0  0  0  0
    4.6088   -1.0256   29.6855 C   0  0  0  0  0  0  0  0  0  0  0  0
    5.4404   -0.0494   28.9075 C   0  0  0  0  0  0  0  0  0  0  0  0
    6.0185   -0.4462   27.5815 C   0  0  0  0  0  0  0  0  0  0  0  0
    5.7650   -1.8194   27.0336 C   0  0  0  0  0  0  0  0  0  0  0  0
   10.9892    2.6546   21.8199 C   0  0  0  0  0  0  0  0  0  0  0  0
   10.6515    6.2869   23.3826 C   0  0  0  0  0  0  0  0  0  0  0  0
   10.2830    4.9487   22.8138 N   0  0  0  0  0  0  0  0  0  0  0  0
   11.3578    3.9927   22.3887 C   0  0  0  0  0  0  0  0  0  0  0  0
   12.8012    4.3748   22.5324 O   0  0  0  0  0  0  0  0  0  0  0  0
    9.3356    4.6979   22.7195 H   0  0  0  0  0  0  0  0  0  0  0  0
    7.7695    1.7711   22.5537 C   0  0  0  0  0  0  0  0  0  0  0  0
    6.5662    1.9790   21.6827 S   0  0  0  0  0  0  0  0  0  0  0  0
    7.1900    1.1269   20.6174 O   0  0  0  0  0  0  0  0  0  0  0  0
    5.9423    2.8312   22.7479 O   0  0  0  0  0  0  0  0  0  0  0  0
    5.3628    2.1870   20.8117 N   0  0  0  0  0  0  0  0  0  0  0  0
    4.5131    1.0164   20.4143 C   0  0  0  0  0  0  0  0  0  0  0  0
    5.1223    3.1244   20.4895 H   0  0  0  0  0  0  0  0  0  0  0  0
 29 30  1  0  0  0
 30 31  1  0  0  0
 31 32  2  0  0  0
 31 28  1  0  0  0
 28  1  1  0  0  0
  1  2  1  0  0  0
  3  2  1  0  0  0
  3  4  1  0  0  0
  4  5  2  0  0  0
  4  6  1  0  0  0
  6 18  1  0  0  0
 18 19  2  0  0  0
 19 20  1  0  0  0
 20 21  2  0  0  0
 21 22  1  0  0  0
 22 23  2  0  0  0
 23 24  1  0  0  0
 24 25  2  0  0  0
 25 26  1  0  0  0
 26 27  2  0  0  0
  6  7  1  0  0  0
  7  8  1  0  0  0
  8 34  1  0  0  0
 34 35  1  0  0  0
 35 36  2  0  0  0
 35 37  2  0  0  0
 35 38  1  0  0  0
 38 39  1  0  0  0
  3  9  1  0  0  0
  9 10  2  0  0  0
 10 11  1  0  0  0
 11 12  1  0  0  0
 11 13  2  0  0  0
 13 14  1  0  0  0
 14 15  2  0  0  0
 15 16  1  0  0  0
 16 17  2  0  0  0
 16  1  1  0  0  0
  8  3  1  0  0  0
 15  9  1  0  0  0
 27 18  1  0  0  0
 27 22  1  0  0  0
 30 33  1  0  0  0
 38 40  1  0  0  0
M  END
> <minimizedAffinity>
-7.65989

> <CNNscore>
0.3045009673

> <CNNaffinity>
6.6615781784

> <CNN_VS>
2.0284569263

> <CNNaffinity_variance>
0.0871765167

$$$$
