


 40 44  0  0  0  0  0  0  0  0999 V2000
   -5.5204   -6.0723  -23.5903 N   0  0  0  0  0  0  0  0  0  0  0  0
   -6.1018   -4.8074  -23.0317 C   0  0  0  0  0  0  0  0  0  0  0  0
   -7.1589   -4.0665  -23.7957 C   0  0  0  0  0  0  0  0  0  0  0  0
   -8.2165   -3.2218  -24.4420 C   0  0  0  0  0  0  0  0  0  0  0  0
   -8.8988   -3.1920  -25.4470 O   0  0  0  0  0  0  0  0  0  0  0  0
   -8.4961   -2.0574  -23.5385 N   0  0  0  0  0  0  0  0  0  0  0  0
   -7.6111   -2.1826  -22.3338 C   0  0  0  0  0  0  0  0  0  0  0  0
   -6.7847   -3.4243  -22.4928 C   0  0  0  0  0  0  0  0  0  0  0  0
   -7.6346   -4.5906  -25.1183 C   0  0  0  0  0  0  0  0  0  0  0  0
   -8.6916   -3.8497  -25.8823 C   0  0  0  0  0  0  0  0  0  0  0  0
   -9.1672   -4.3738  -27.2048 C   0  0  0  0  0  0  0  0  0  0  0  0
  -10.2244   -3.6329  -27.9689 F   0  0  0  0  0  0  0  0  0  0  0  0
   -8.5858   -5.6386  -27.7633 C   0  0  0  0  0  0  0  0  0  0  0  0
   -7.5288   -6.3795  -26.9994 C   0  0  0  0  0  0  0  0  0  0  0  0
   -7.0531   -5.8555  -25.6769 C   0  0  0  0  0  0  0  0  0  0  0  0
   -5.9960   -6.5963  -24.9128 C   0  0  0  0  0  0  0  0  0  0  0  0
   -5.4146   -7.8612  -25.4713 O   0  0  0  0  0  0  0  0  0  0  0  0
   -9.4866   -0.9605  -23.7948 C   0  0  0  0  0  0  0  0  0  0  0  0
   -9.0370    0.3236  -24.4263 C   0  0  0  0  0  0  0  0  0  0  0  0
  -10.0275    1.4205  -24.6825 N   0  0  0  0  0  0  0  0  0  0  0  0
  -11.4677    1.2332  -24.3072 C   0  0  0  0  0  0  0  0  0  0  0  0
  -11.9173   -0.0509  -23.6757 C   0  0  0  0  0  0  0  0  0  0  0  0
  -13.3575   -0.2382  -23.3005 C   0  0  0  0  0  0  0  0  0  0  0  0
  -13.8071   -1.5224  -22.6690 C   0  0  0  0  0  0  0  0  0  0  0  0
  -12.8165   -2.6193  -22.4127 C   0  0  0  0  0  0  0  0  0  0  0  0
  -11.3764   -2.4320  -22.7880 C   0  0  0  0  0  0  0  0  0  0  0  0
  -10.9268   -1.1478  -23.4195 C   0  0  0  0  0  0  0  0  0  0  0  0
   -4.4633   -6.8132  -22.8262 C   0  0  0  0  0  0  0  0  0  0  0  0
   -0.8617   -8.3335  -23.5096 C   0  0  0  0  0  0  0  0  0  0  0  0
   -2.2110   -8.1063  -22.8950 N   0  0  0  0  0  0  0  0  0  0  0  0
   -3.1140   -7.0403  -23.4409 C   0  0  0  0  0  0  0  0  0  0  0  0
   -2.6677   -6.2014  -24.6016 O   0  0  0  0  0  0  0  0  0  0  0  0
   -2.5039   -8.6570  -22.1332 H   0  0  0  0  0  0  0  0  0  0  0  0
   -5.7634   -3.9342  -21.5197 C   0  0  0  0  0  0  0  0  0  0  0  0
   -5.4140   -3.1248  -20.3062 S   0  0  0  0  0  0  0  0  0  0  0  0
   -5.4034   -1.8784  -21.1406 O   0  0  0  0  0  0  0  0  0  0  0  0
   -5.4245   -4.3713  -19.4717 O   0  0  0  0  0  0  0  0  0  0  0  0
   -5.0645   -2.3155  -19.0926 N   0  0  0  0  0  0  0  0  0  0  0  0
   -5.8183   -1.0545  -18.7894 C   0  0  0  0  0  0  0  0  0  0  0  0
   -4.3142   -2.6225  -18.4736 H   0  0  0  0  0  0  0  0  0  0  0  0
 29 30  1  0  0  0
 30 31  1  0  0  0
 31 32  2  0  0  0
 31 28  1  0  0  0
 28  1  1  0  0  0
  1  2  1  0  0  0
  3  2  1  0  0  0
  3  4  1  0  0  0
  4  5  2  0  0  0
  4  6  1  0  0  0
  6 18  1  0  0  0
 18 19  2  0  0  0
 19 20  1  0  0  0
 20 21  2  0  0  0
 21 22  1  0  0  0
 22 23  2  0  0  0
 23 24  1  0  0  0
 24 25  2  0  0  0
 25 26  1  0  0  0
 26 27  2  0  0  0
  6  7  1  0  0  0
  7  8  1  0  0  0
  8 34  1  0  0  0
 34 35  1  0  0  0
 35 36  2  0  0  0
 35 37  2  0  0  0
 35 38  1  0  0  0
 38 39  1  0  0  0
  3  9  1  0  0  0
  9 10  2  0  0  0
 10 11  1  0  0  0
 11 12  1  0  0  0
 11 13  2  0  0  0
 13 14  1  0  0  0
 14 15  2  0  0  0
 15 16  1  0  0  0
 16 17  2  0  0  0
 16  1  1  0  0  0
  8  3  1  0  0  0
 15  9  1  0  0  0
 27 18  1  0  0  0
 27 22  1  0  0  0
 30 33  1  0  0  0
 38 40  1  0  0  0
M  END
> <minimizedAffinity>
-8.38860

> <CNNscore>
0.8310552835

> <CNNaffinity>
7.2465782166

> <CNN_VS>
6.0223069191

> <CNNaffinity_variance>
0.1570830792

$$$$



 40 44  0  0  0  0  0  0  0  0999 V2000
   -5.3814   -6.1668  -23.6767 N   0  0  0  0  0  0  0  0  0  0  0  0
   -6.0792   -4.9994  -23.0442 C   0  0  0  0  0  0  0  0  0  0  0  0
   -7.2562   -4.3689  -23.7276 C   0  0  0  0  0  0  0  0  0  0  0  0
   -8.4399   -3.6390  -24.2897 C   0  0  0  0  0  0  0  0  0  0  0  0
   -9.1732   -3.6613  -25.2583 O   0  0  0  0  0  0  0  0  0  0  0  0
   -8.8081   -2.5454  -23.3314 N   0  0  0  0  0  0  0  0  0  0  0  0
   -7.8519   -2.5994  -22.1769 C   0  0  0  0  0  0  0  0  0  0  0  0
   -6.8928   -3.7264  -22.4218 C   0  0  0  0  0  0  0  0  0  0  0  0
   -7.7354   -4.9059  -25.0437 C   0  0  0  0  0  0  0  0  0  0  0  0
   -8.9124   -4.2754  -25.7272 C   0  0  0  0  0  0  0  0  0  0  0  0
   -9.3915   -4.8123  -27.0433 C   0  0  0  0  0  0  0  0  0  0  0  0
  -10.5686   -4.1819  -27.7268 F   0  0  0  0  0  0  0  0  0  0  0  0
   -8.6937   -5.9798  -27.6758 C   0  0  0  0  0  0  0  0  0  0  0  0
   -7.5168   -6.6102  -26.9924 C   0  0  0  0  0  0  0  0  0  0  0  0
   -7.0376   -6.0733  -25.6763 C   0  0  0  0  0  0  0  0  0  0  0  0
   -5.8606   -6.7038  -24.9928 C   0  0  0  0  0  0  0  0  0  0  0  0
   -5.1627   -7.8712  -25.6254 O   0  0  0  0  0  0  0  0  0  0  0  0
   -9.9347   -1.5692  -23.4982 C   0  0  0  0  0  0  0  0  0  0  0  0
  -11.3520   -2.0182  -23.2989 C   0  0  0  0  0  0  0  0  0  0  0  0
  -12.4786   -1.0421  -23.4657 N   0  0  0  0  0  0  0  0  0  0  0  0
  -12.1879    0.3832  -23.8319 C   0  0  0  0  0  0  0  0  0  0  0  0
  -10.7706    0.8323  -24.0313 C   0  0  0  0  0  0  0  0  0  0  0  0
  -10.4800    2.2576  -24.3975 C   0  0  0  0  0  0  0  0  0  0  0  0
   -9.0627    2.7066  -24.5969 C   0  0  0  0  0  0  0  0  0  0  0  0
   -7.9361    1.7304  -24.4300 C   0  0  0  0  0  0  0  0  0  0  0  0
   -8.2268    0.3051  -24.0638 C   0  0  0  0  0  0  0  0  0  0  0  0
   -9.6440   -0.1439  -23.8644 C   0  0  0  0  0  0  0  0  0  0  0  0
   -4.2044   -6.7973  -22.9932 C   0  0  0  0  0  0  0  0  0  0  0  0
   -0.9373   -8.6406  -24.2889 C   0  0  0  0  0  0  0  0  0  0  0  0
   -2.1885   -8.3514  -23.5136 N   0  0  0  0  0  0  0  0  0  0  0  0
   -2.9532   -7.0864  -23.7685 C   0  0  0  0  0  0  0  0  0  0  0  0
   -2.4669   -6.1106  -24.7987 O   0  0  0  0  0  0  0  0  0  0  0  0
   -2.5077   -8.9919  -22.8375 H   0  0  0  0  0  0  0  0  0  0  0  0
   -5.7678   -4.1384  -21.5193 C   0  0  0  0  0  0  0  0  0  0  0  0
   -5.4124   -3.2953  -20.3308 S   0  0  0  0  0  0  0  0  0  0  0  0
   -5.4496   -4.5131  -19.4558 O   0  0  0  0  0  0  0  0  0  0  0  0
   -5.3751   -2.0775  -21.2058 O   0  0  0  0  0  0  0  0  0  0  0  0
   -5.0570   -2.4522  -19.1422 N   0  0  0  0  0  0  0  0  0  0  0  0
   -5.8401   -1.2080  -18.8440 C   0  0  0  0  0  0  0  0  0  0  0  0
   -4.2828   -2.7248  -18.5367 H   0  0  0  0  0  0  0  0  0  0  0  0
 29 30  1  0  0  0
 30 31  1  0  0  0
 31 32  2  0  0  0
 31 28  1  0  0  0
 28  1  1  0  0  0
  1  2  1  0  0  0
  3  2  1  0  0  0
  3  4  1  0  0  0
  4  5  2  0  0  0
  4  6  1  0  0  0
  6 18  1  0  0  0
 18 19  2  0  0  0
 19 20  1  0  0  0
 20 21  2  0  0  0
 21 22  1  0  0  0
 22 23  2  0  0  0
 23 24  1  0  0  0
 24 25  2  0  0  0
 25 26  1  0  0  0
 26 27  2  0  0  0
  6  7  1  0  0  0
  7  8  1  0  0  0
  8 34  1  0  0  0
 34 35  1  0  0  0
 35 36  2  0  0  0
 35 37  2  0  0  0
 35 38  1  0  0  0
 38 39  1  0  0  0
  3  9  1  0  0  0
  9 10  2  0  0  0
 10 11  1  0  0  0
 11 12  1  0  0  0
 11 13  2  0  0  0
 13 14  1  0  0  0
 14 15  2  0  0  0
 15 16  1  0  0  0
 16 17  2  0  0  0
 16  1  1  0  0  0
  8  3  1  0  0  0
 15  9  1  0  0  0
 27 18  1  0  0  0
 27 22  1  0  0  0
 30 33  1  0  0  0
 38 40  1  0  0  0
M  END
> <minimizedAffinity>
-7.65874

> <CNNscore>
0.6622999310

> <CNNaffinity>
6.8521780968

> <CNN_VS>
4.5381970406

> <CNNaffinity_variance>
0.1447646469

$$$$



 40 44  0  0  0  0  0  0  0  0999 V2000
   -7.5777   -2.9158  -23.7786 N   0  0  0  0  0  0  0  0  0  0  0  0
   -6.8343   -1.8688  -23.0032 C   0  0  0  0  0  0  0  0  0  0  0  0
   -6.3249   -0.6412  -23.6985 C   0  0  0  0  0  0  0  0  0  0  0  0
   -5.7592    0.6320  -24.2543 C   0  0  0  0  0  0  0  0  0  0  0  0
   -5.6726    1.2299  -25.3086 O   0  0  0  0  0  0  0  0  0  0  0  0
   -5.1014    1.3766  -23.1305 N   0  0  0  0  0  0  0  0  0  0  0  0
   -5.2605    0.5635  -21.8801 C   0  0  0  0  0  0  0  0  0  0  0  0
   -6.0167   -0.6835  -22.2311 C   0  0  0  0  0  0  0  0  0  0  0  0
   -6.5587   -0.4606  -25.1691 C   0  0  0  0  0  0  0  0  0  0  0  0
   -6.0493    0.7670  -25.8644 C   0  0  0  0  0  0  0  0  0  0  0  0
   -6.2832    0.9476  -27.3349 C   0  0  0  0  0  0  0  0  0  0  0  0
   -5.7737    2.1753  -28.0303 F   0  0  0  0  0  0  0  0  0  0  0  0
   -7.0265   -0.0994  -28.1103 C   0  0  0  0  0  0  0  0  0  0  0  0
   -7.5359   -1.3271  -27.4151 C   0  0  0  0  0  0  0  0  0  0  0  0
   -7.3021   -1.5076  -25.9445 C   0  0  0  0  0  0  0  0  0  0  0  0
   -7.8115   -2.7353  -25.2492 C   0  0  0  0  0  0  0  0  0  0  0  0
   -8.5549   -3.7823  -26.0245 O   0  0  0  0  0  0  0  0  0  0  0  0
   -4.4065    2.7015  -23.2383 C   0  0  0  0  0  0  0  0  0  0  0  0
   -2.9897    2.7679  -23.7265 C   0  0  0  0  0  0  0  0  0  0  0  0
   -2.2949    4.0928  -23.8343 N   0  0  0  0  0  0  0  0  0  0  0  0
   -3.0168    5.3514  -23.4538 C   0  0  0  0  0  0  0  0  0  0  0  0
   -4.4336    5.2851  -22.9657 C   0  0  0  0  0  0  0  0  0  0  0  0
   -5.1555    6.5438  -22.5852 C   0  0  0  0  0  0  0  0  0  0  0  0
   -6.5723    6.4773  -22.0971 C   0  0  0  0  0  0  0  0  0  0  0  0
   -7.2672    5.1524  -21.9893 C   0  0  0  0  0  0  0  0  0  0  0  0
   -6.5453    3.8938  -22.3697 C   0  0  0  0  0  0  0  0  0  0  0  0
   -5.1285    3.9601  -22.8579 C   0  0  0  0  0  0  0  0  0  0  0  0
   -8.0871   -4.1435  -23.0833 C   0  0  0  0  0  0  0  0  0  0  0  0
   -4.9758   -6.5286  -22.4661 C   0  0  0  0  0  0  0  0  0  0  0  0
   -5.8251   -5.2937  -22.5261 N   0  0  0  0  0  0  0  0  0  0  0  0
   -7.2377   -5.3784  -23.0233 C   0  0  0  0  0  0  0  0  0  0  0  0
   -7.8011   -6.6981  -23.4606 O   0  0  0  0  0  0  0  0  0  0  0  0
   -5.4554   -4.4275  -22.2391 H   0  0  0  0  0  0  0  0  0  0  0  0
   -6.3977   -1.7803  -21.2814 C   0  0  0  0  0  0  0  0  0  0  0  0
   -6.0768   -1.6536  -19.8217 S   0  0  0  0  0  0  0  0  0  0  0  0
   -7.1190   -0.5835  -19.6854 O   0  0  0  0  0  0  0  0  0  0  0  0
   -5.0344   -2.7237  -19.9580 O   0  0  0  0  0  0  0  0  0  0  0  0
   -5.7558   -1.5270  -18.3619 N   0  0  0  0  0  0  0  0  0  0  0  0
   -5.2351   -0.2295  -17.8182 C   0  0  0  0  0  0  0  0  0  0  0  0
   -5.8917   -2.3231  -17.7390 H   0  0  0  0  0  0  0  0  0  0  0  0
 29 30  1  0  0  0
 30 31  1  0  0  0
 31 32  2  0  0  0
 31 28  1  0  0  0
 28  1  1  0  0  0
  1  2  1  0  0  0
  3  2  1  0  0  0
  3  4  1  0  0  0
  4  5  2  0  0  0
  4  6  1  0  0  0
  6 18  1  0  0  0
 18 19  2  0  0  0
 19 20  1  0  0  0
 20 21  2  0  0  0
 21 22  1  0  0  0
 22 23  2  0  0  0
 23 24  1  0  0  0
 24 25  2  0  0  0
 25 26  1  0  0  0
 26 27  2  0  0  0
  6  7  1  0  0  0
  7  8  1  0  0  0
  8 34  1  0  0  0
 34 35  1  0  0  0
 35 36  2  0  0  0
 35 37  2  0  0  0
 35 38  1  0  0  0
 38 39  1  0  0  0
  3  9  1  0  0  0
  9 10  2  0  0  0
 10 11  1  0  0  0
 11 12  1  0  0  0
 11 13  2  0  0  0
 13 14  1  0  0  0
 14 15  2  0  0  0
 15 16  1  0  0  0
 16 17  2  0  0  0
 16  1  1  0  0  0
  8  3  1  0  0  0
 15  9  1  0  0  0
 27 18  1  0  0  0
 27 22  1  0  0  0
 30 33  1  0  0  0
 38 40  1  0  0  0
M  END
> <minimizedAffinity>
-6.97245

> <CNNscore>
0.4208837450

> <CNNaffinity>
6.5725769997

> <CNN_VS>
2.7662909031

> <CNNaffinity_variance>
0.0677634925

$$$$



 40 44  0  0  0  0  0  0  0  0999 V2000
   -6.5626   -4.1121  -22.9595 N   0  0  0  0  0  0  0  0  0  0  0  0
   -6.6796   -2.7588  -22.3230 C   0  0  0  0  0  0  0  0  0  0  0  0
   -6.9521   -1.5521  -23.1712 C   0  0  0  0  0  0  0  0  0  0  0  0
   -7.2209   -0.2615  -23.8868 C   0  0  0  0  0  0  0  0  0  0  0  0
   -7.4141    0.1567  -25.0111 O   0  0  0  0  0  0  0  0  0  0  0  0
   -7.2557    0.8364  -22.8653 N   0  0  0  0  0  0  0  0  0  0  0  0
   -7.0085    0.2243  -21.5183 C   0  0  0  0  0  0  0  0  0  0  0  0
   -6.8209   -1.2519  -21.7074 C   0  0  0  0  0  0  0  0  0  0  0  0
   -7.1078   -1.6986  -24.6560 C   0  0  0  0  0  0  0  0  0  0  0  0
   -7.3804   -0.4919  -25.5042 C   0  0  0  0  0  0  0  0  0  0  0  0
   -7.5360   -0.6384  -26.9888 C   0  0  0  0  0  0  0  0  0  0  0  0
   -7.8086    0.5683  -27.8371 F   0  0  0  0  0  0  0  0  0  0  0  0
   -7.4191   -1.9917  -27.6253 C   0  0  0  0  0  0  0  0  0  0  0  0
   -7.1465   -3.1984  -26.7771 C   0  0  0  0  0  0  0  0  0  0  0  0
   -6.9909   -3.0519  -25.2924 C   0  0  0  0  0  0  0  0  0  0  0  0
   -6.7183   -4.2586  -24.4441 C   0  0  0  0  0  0  0  0  0  0  0  0
   -6.6014   -5.6119  -25.0806 O   0  0  0  0  0  0  0  0  0  0  0  0
   -7.4956    2.2909  -23.1421 C   0  0  0  0  0  0  0  0  0  0  0  0
   -8.8463    2.7541  -23.6017 C   0  0  0  0  0  0  0  0  0  0  0  0
   -9.0862    4.2087  -23.8785 N   0  0  0  0  0  0  0  0  0  0  0  0
   -7.9755    5.2001  -23.6957 C   0  0  0  0  0  0  0  0  0  0  0  0
   -6.6248    4.7369  -23.2361 C   0  0  0  0  0  0  0  0  0  0  0  0
   -5.5140    5.7284  -23.0533 C   0  0  0  0  0  0  0  0  0  0  0  0
   -4.1634    5.2651  -22.5937 C   0  0  0  0  0  0  0  0  0  0  0  0
   -3.9235    3.8105  -22.3168 C   0  0  0  0  0  0  0  0  0  0  0  0
   -5.0342    2.8191  -22.4996 C   0  0  0  0  0  0  0  0  0  0  0  0
   -6.3849    3.2823  -22.9593 C   0  0  0  0  0  0  0  0  0  0  0  0
   -6.2901   -5.3188  -22.1112 C   0  0  0  0  0  0  0  0  0  0  0  0
   -3.3078   -7.3639  -23.7463 C   0  0  0  0  0  0  0  0  0  0  0  0
   -4.1066   -6.2220  -23.1913 N   0  0  0  0  0  0  0  0  0  0  0  0
   -5.4912   -6.4607  -22.6661 C   0  0  0  0  0  0  0  0  0  0  0  0
   -6.0770   -7.8414  -22.6957 O   0  0  0  0  0  0  0  0  0  0  0  0
   -3.7222   -5.3159  -23.1719 H   0  0  0  0  0  0  0  0  0  0  0  0
   -6.5496   -2.2522  -20.6231 C   0  0  0  0  0  0  0  0  0  0  0  0
   -5.9814   -1.8001  -19.3106 S   0  0  0  0  0  0  0  0  0  0  0  0
   -5.0500   -2.9759  -19.3088 O   0  0  0  0  0  0  0  0  0  0  0  0
   -6.9128   -0.6243  -19.3124 O   0  0  0  0  0  0  0  0  0  0  0  0
   -5.4132   -1.3480  -17.9981 N   0  0  0  0  0  0  0  0  0  0  0  0
   -5.3994    0.1109  -17.6494 C   0  0  0  0  0  0  0  0  0  0  0  0
   -5.0362   -2.0325  -17.3427 H   0  0  0  0  0  0  0  0  0  0  0  0
 29 30  1  0  0  0
 30 31  1  0  0  0
 31 32  2  0  0  0
 31 28  1  0  0  0
 28  1  1  0  0  0
  1  2  1  0  0  0
  3  2  1  0  0  0
  3  4  1  0  0  0
  4  5  2  0  0  0
  4  6  1  0  0  0
  6 18  1  0  0  0
 18 19  2  0  0  0
 19 20  1  0  0  0
 20 21  2  0  0  0
 21 22  1  0  0  0
 22 23  2  0  0  0
 23 24  1  0  0  0
 24 25  2  0  0  0
 25 26  1  0  0  0
 26 27  2  0  0  0
  6  7  1  0  0  0
  7  8  1  0  0  0
  8 34  1  0  0  0
 34 35  1  0  0  0
 35 36  2  0  0  0
 35 37  2  0  0  0
 35 38  1  0  0  0
 38 39  1  0  0  0
  3  9  1  0  0  0
  9 10  2  0  0  0
 10 11  1  0  0  0
 11 12  1  0  0  0
 11 13  2  0  0  0
 13 14  1  0  0  0
 14 15  2  0  0  0
 15 16  1  0  0  0
 16 17  2  0  0  0
 16  1  1  0  0  0
  8  3  1  0  0  0
 15  9  1  0  0  0
 27 18  1  0  0  0
 27 22  1  0  0  0
 30 33  1  0  0  0
 38 40  1  0  0  0
M  END
> <minimizedAffinity>
-7.42974

> <CNNscore>
0.4115241468

> <CNNaffinity>
6.5198259354

> <CNN_VS>
2.6830658913

> <CNNaffinity_variance>
0.4086823463

$$$$



 40 44  0  0  0  0  0  0  0  0999 V2000
   -9.6870    2.6217  -24.5520 N   0  0  0  0  0  0  0  0  0  0  0  0
   -8.7032    1.4943  -24.6574 C   0  0  0  0  0  0  0  0  0  0  0  0
   -9.1260    0.0958  -24.3176 C   0  0  0  0  0  0  0  0  0  0  0  0
   -9.4021   -1.3467  -24.0129 C   0  0  0  0  0  0  0  0  0  0  0  0
  -10.3111   -2.0620  -23.6408 O   0  0  0  0  0  0  0  0  0  0  0  0
   -8.1401   -2.1211  -24.2532 N   0  0  0  0  0  0  0  0  0  0  0  0
   -7.0840   -1.1572  -24.7064 C   0  0  0  0  0  0  0  0  0  0  0  0
   -7.6933    0.2129  -24.7462 C   0  0  0  0  0  0  0  0  0  0  0  0
  -10.5325   -0.1753  -23.8724 C   0  0  0  0  0  0  0  0  0  0  0  0
  -10.9553   -1.5738  -23.5327 C   0  0  0  0  0  0  0  0  0  0  0  0
  -12.3618   -1.8449  -23.0875 C   0  0  0  0  0  0  0  0  0  0  0  0
  -12.7846   -3.2434  -22.7477 F   0  0  0  0  0  0  0  0  0  0  0  0
  -13.3455   -0.7175  -22.9821 C   0  0  0  0  0  0  0  0  0  0  0  0
  -12.9228    0.6810  -23.3219 C   0  0  0  0  0  0  0  0  0  0  0  0
  -11.5163    0.9521  -23.7670 C   0  0  0  0  0  0  0  0  0  0  0  0
  -11.0935    2.3506  -24.1068 C   0  0  0  0  0  0  0  0  0  0  0  0
  -12.0773    3.4781  -24.0014 O   0  0  0  0  0  0  0  0  0  0  0  0
   -7.9650   -3.5998  -24.0721 C   0  0  0  0  0  0  0  0  0  0  0  0
   -7.3402   -4.1329  -22.8169 C   0  0  0  0  0  0  0  0  0  0  0  0
   -7.1652   -5.6116  -22.6358 N   0  0  0  0  0  0  0  0  0  0  0  0
   -7.6149   -6.5572  -23.7098 C   0  0  0  0  0  0  0  0  0  0  0  0
   -8.2397   -6.0241  -24.9650 C   0  0  0  0  0  0  0  0  0  0  0  0
   -8.6894   -6.9697  -26.0391 C   0  0  0  0  0  0  0  0  0  0  0  0
   -9.3141   -6.4365  -27.2943 C   0  0  0  0  0  0  0  0  0  0  0  0
   -9.4892   -4.9578  -27.4754 C   0  0  0  0  0  0  0  0  0  0  0  0
   -9.0395   -4.0122  -26.4013 C   0  0  0  0  0  0  0  0  0  0  0  0
   -8.4147   -4.5454  -25.1461 C   0  0  0  0  0  0  0  0  0  0  0  0
   -9.2642    4.0203  -24.8917 C   0  0  0  0  0  0  0  0  0  0  0  0
   -7.0264    5.2300  -21.8456 C   0  0  0  0  0  0  0  0  0  0  0  0
   -7.6264    4.3503  -22.9021 N   0  0  0  0  0  0  0  0  0  0  0  0
   -8.6642    4.9000  -23.8353 C   0  0  0  0  0  0  0  0  0  0  0  0
   -9.1020    6.3294  -23.7120 O   0  0  0  0  0  0  0  0  0  0  0  0
   -7.3391    3.4121  -22.9830 H   0  0  0  0  0  0  0  0  0  0  0  0
   -6.9928    1.4781  -25.1446 C   0  0  0  0  0  0  0  0  0  0  0  0
   -5.5017    1.5812  -25.0194 S   0  0  0  0  0  0  0  0  0  0  0  0
   -5.6458    1.8924  -23.5591 O   0  0  0  0  0  0  0  0  0  0  0  0
   -5.3575    1.2700  -26.4797 O   0  0  0  0  0  0  0  0  0  0  0  0
   -4.0105    1.6843  -24.8942 N   0  0  0  0  0  0  0  0  0  0  0  0
   -3.2703    0.7668  -23.9667 C   0  0  0  0  0  0  0  0  0  0  0  0
   -3.4997    2.3784  -25.4399 H   0  0  0  0  0  0  0  0  0  0  0  0
 29 30  1  0  0  0
 30 31  1  0  0  0
 31 32  2  0  0  0
 31 28  1  0  0  0
 28  1  1  0  0  0
  1  2  1  0  0  0
  3  2  1  0  0  0
  3  4  1  0  0  0
  4  5  2  0  0  0
  4  6  1  0  0  0
  6 18  1  0  0  0
 18 19  2  0  0  0
 19 20  1  0  0  0
 20 21  2  0  0  0
 21 22  1  0  0  0
 22 23  2  0  0  0
 23 24  1  0  0  0
 24 25  2  0  0  0
 25 26  1  0  0  0
 26 27  2  0  0  0
  6  7  1  0  0  0
  7  8  1  0  0  0
  8 34  1  0  0  0
 34 35  1  0  0  0
 35 36  2  0  0  0
 35 37  2  0  0  0
 35 38  1  0  0  0
 38 39  1  0  0  0
  3  9  1  0  0  0
  9 10  2  0  0  0
 10 11  1  0  0  0
 11 12  1  0  0  0
 11 13  2  0  0  0
 13 14  1  0  0  0
 14 15  2  0  0  0
 15 16  1  0  0  0
 16 17  2  0  0  0
 16  1  1  0  0  0
  8  3  1  0  0  0
 15  9  1  0  0  0
 27 18  1  0  0  0
 27 22  1  0  0  0
 30 33  1  0  0  0
 38 40  1  0  0  0
M  END
> <minimizedAffinity>
-7.13716

> <CNNscore>
0.3428273797

> <CNNaffinity>
6.4830389023

> <CNN_VS>
2.2225632668

> <CNNaffinity_variance>
0.0638634264

$$$$



 40 44  0  0  0  0  0  0  0  0999 V2000
   -8.6692   -5.4142  -24.6850 N   0  0  0  0  0  0  0  0  0  0  0  0
   -7.5750   -5.1079  -23.7057 C   0  0  0  0  0  0  0  0  0  0  0  0
   -7.5930   -3.8179  -22.9404 C   0  0  0  0  0  0  0  0  0  0  0  0
   -7.4776   -2.5759  -22.1073 C   0  0  0  0  0  0  0  0  0  0  0  0
   -8.0666   -1.5325  -21.9054 O   0  0  0  0  0  0  0  0  0  0  0  0
   -6.2354   -2.6902  -21.2743 N   0  0  0  0  0  0  0  0  0  0  0  0
   -5.5830   -4.0028  -21.5927 C   0  0  0  0  0  0  0  0  0  0  0  0
   -6.4220   -4.6998  -22.6224 C   0  0  0  0  0  0  0  0  0  0  0  0
   -8.7051   -2.8343  -23.1544 C   0  0  0  0  0  0  0  0  0  0  0  0
   -8.7230   -1.5444  -22.3891 C   0  0  0  0  0  0  0  0  0  0  0  0
   -9.8351   -0.5608  -22.6031 C   0  0  0  0  0  0  0  0  0  0  0  0
   -9.8530    0.7292  -21.8377 F   0  0  0  0  0  0  0  0  0  0  0  0
  -10.9293   -0.8672  -23.5823 C   0  0  0  0  0  0  0  0  0  0  0  0
  -10.9113   -2.1571  -24.3476 C   0  0  0  0  0  0  0  0  0  0  0  0
   -9.7993   -3.1407  -24.1336 C   0  0  0  0  0  0  0  0  0  0  0  0
   -9.7813   -4.4307  -24.8990 C   0  0  0  0  0  0  0  0  0  0  0  0
  -10.8755   -4.7370  -25.8782 O   0  0  0  0  0  0  0  0  0  0  0  0
   -5.7337   -1.6708  -20.2950 C   0  0  0  0  0  0  0  0  0  0  0  0
   -6.1167   -1.7688  -18.8480 C   0  0  0  0  0  0  0  0  0  0  0  0
   -5.6150   -0.7493  -17.8687 N   0  0  0  0  0  0  0  0  0  0  0  0
   -4.7303    0.3681  -18.3364 C   0  0  0  0  0  0  0  0  0  0  0  0
   -4.3474    0.4661  -19.7834 C   0  0  0  0  0  0  0  0  0  0  0  0
   -3.4627    1.5836  -20.2510 C   0  0  0  0  0  0  0  0  0  0  0  0
   -3.0798    1.6815  -21.6980 C   0  0  0  0  0  0  0  0  0  0  0  0
   -3.5815    0.6621  -22.6774 C   0  0  0  0  0  0  0  0  0  0  0  0
   -4.4661   -0.4553  -22.2097 C   0  0  0  0  0  0  0  0  0  0  0  0
   -4.8491   -0.5533  -20.7627 C   0  0  0  0  0  0  0  0  0  0  0  0
   -8.6513   -6.7042  -25.4503 C   0  0  0  0  0  0  0  0  0  0  0  0
   -6.0396   -7.1409  -28.4064 C   0  0  0  0  0  0  0  0  0  0  0  0
   -6.6223   -7.0965  -27.0249 N   0  0  0  0  0  0  0  0  0  0  0  0
   -8.0686   -6.7486  -26.8318 C   0  0  0  0  0  0  0  0  0  0  0  0
   -8.9322   -6.4451  -28.0202 O   0  0  0  0  0  0  0  0  0  0  0  0
   -6.0555   -7.2957  -26.2450 H   0  0  0  0  0  0  0  0  0  0  0  0
   -6.1396   -6.0429  -23.2277 C   0  0  0  0  0  0  0  0  0  0  0  0
   -4.8327   -6.7275  -22.9575 S   0  0  0  0  0  0  0  0  0  0  0  0
   -4.3262   -6.2907  -24.3001 O   0  0  0  0  0  0  0  0  0  0  0  0
   -5.3392   -7.1644  -21.6148 O   0  0  0  0  0  0  0  0  0  0  0  0
   -3.5258   -7.4122  -22.6872 N   0  0  0  0  0  0  0  0  0  0  0  0
   -2.3112   -7.0547  -23.4916 C   0  0  0  0  0  0  0  0  0  0  0  0
   -3.4630   -8.1210  -21.9564 H   0  0  0  0  0  0  0  0  0  0  0  0
 29 30  1  0  0  0
 30 31  1  0  0  0
 31 32  2  0  0  0
 31 28  1  0  0  0
 28  1  1  0  0  0
  1  2  1  0  0  0
  3  2  1  0  0  0
  3  4  1  0  0  0
  4  5  2  0  0  0
  4  6  1  0  0  0
  6 18  1  0  0  0
 18 19  2  0  0  0
 19 20  1  0  0  0
 20 21  2  0  0  0
 21 22  1  0  0  0
 22 23  2  0  0  0
 23 24  1  0  0  0
 24 25  2  0  0  0
 25 26  1  0  0  0
 26 27  2  0  0  0
  6  7  1  0  0  0
  7  8  1  0  0  0
  8 34  1  0  0  0
 34 35  1  0  0  0
 35 36  2  0  0  0
 35 37  2  0  0  0
 35 38  1  0  0  0
 38 39  1  0  0  0
  3  9  1  0  0  0
  9 10  2  0  0  0
 10 11  1  0  0  0
 11 12  1  0  0  0
 11 13  2  0  0  0
 13 14  1  0  0  0
 14 15  2  0  0  0
 15 16  1  0  0  0
 16 17  2  0  0  0
 16  1  1  0  0  0
  8  3  1  0  0  0
 15  9  1  0  0  0
 27 18  1  0  0  0
 27 22  1  0  0  0
 30 33  1  0  0  0
 38 40  1  0  0  0
M  END
> <minimizedAffinity>
-9.06211

> <CNNscore>
0.3403269053

> <CNNaffinity>
6.3619832993

> <CNN_VS>
2.1651539803

> <CNNaffinity_variance>
0.6349270940

$$$$



 40 44  0  0  0  0  0  0  0  0999 V2000
   -7.6725   -3.7355  -26.2028 N   0  0  0  0  0  0  0  0  0  0  0  0
   -7.1766   -3.8222  -24.7898 C   0  0  0  0  0  0  0  0  0  0  0  0
   -6.9708   -2.5707  -23.9890 C   0  0  0  0  0  0  0  0  0  0  0  0
   -6.7187   -1.4121  -23.0704 C   0  0  0  0  0  0  0  0  0  0  0  0
   -6.7860   -0.1989  -23.0621 O   0  0  0  0  0  0  0  0  0  0  0  0
   -6.2320   -1.9566  -21.7602 N   0  0  0  0  0  0  0  0  0  0  0  0
   -6.1833   -3.4519  -21.8691 C   0  0  0  0  0  0  0  0  0  0  0  0
   -6.6399   -3.8314  -23.2466 C   0  0  0  0  0  0  0  0  0  0  0  0
   -7.2609   -1.2324  -24.6012 C   0  0  0  0  0  0  0  0  0  0  0  0
   -7.0551    0.0192  -23.8004 C   0  0  0  0  0  0  0  0  0  0  0  0
   -7.3452    1.3574  -24.4126 C   0  0  0  0  0  0  0  0  0  0  0  0
   -7.1394    2.6090  -23.6117 F   0  0  0  0  0  0  0  0  0  0  0  0
   -7.8412    1.4442  -25.8255 C   0  0  0  0  0  0  0  0  0  0  0  0
   -8.0470    0.1927  -26.6264 C   0  0  0  0  0  0  0  0  0  0  0  0
   -7.7569   -1.1456  -26.0142 C   0  0  0  0  0  0  0  0  0  0  0  0
   -7.9627   -2.3972  -26.8150 C   0  0  0  0  0  0  0  0  0  0  0  0
   -8.4586   -2.3104  -28.2280 O   0  0  0  0  0  0  0  0  0  0  0  0
   -5.8594   -1.1479  -20.5531 C   0  0  0  0  0  0  0  0  0  0  0  0
   -6.6432   -1.2924  -19.2823 C   0  0  0  0  0  0  0  0  0  0  0  0
   -6.2706   -0.4837  -18.0752 N   0  0  0  0  0  0  0  0  0  0  0  0
   -5.1142    0.4695  -18.1388 C   0  0  0  0  0  0  0  0  0  0  0  0
   -4.3304    0.6141  -19.4096 C   0  0  0  0  0  0  0  0  0  0  0  0
   -3.1740    1.5674  -19.4732 C   0  0  0  0  0  0  0  0  0  0  0  0
   -2.3902    1.7118  -20.7440 C   0  0  0  0  0  0  0  0  0  0  0  0
   -2.7628    0.9031  -21.9511 C   0  0  0  0  0  0  0  0  0  0  0  0
   -3.9192   -0.0501  -21.8875 C   0  0  0  0  0  0  0  0  0  0  0  0
   -4.7030   -0.1947  -20.6167 C   0  0  0  0  0  0  0  0  0  0  0  0
   -7.8783   -4.9871  -27.0036 C   0  0  0  0  0  0  0  0  0  0  0  0
   -5.0762   -7.7358  -27.5887 C   0  0  0  0  0  0  0  0  0  0  0  0
   -6.2560   -7.0163  -27.0053 N   0  0  0  0  0  0  0  0  0  0  0  0
   -6.6986   -5.7066  -27.5871 C   0  0  0  0  0  0  0  0  0  0  0  0
   -5.9613   -5.1162  -28.7525 O   0  0  0  0  0  0  0  0  0  0  0  0
   -6.7399   -7.4038  -26.2404 H   0  0  0  0  0  0  0  0  0  0  0  0
   -6.7468   -5.2266  -23.7868 C   0  0  0  0  0  0  0  0  0  0  0  0
   -5.7518   -6.2697  -23.3723 S   0  0  0  0  0  0  0  0  0  0  0  0
   -4.8567   -5.8665  -24.5064 O   0  0  0  0  0  0  0  0  0  0  0  0
   -6.6469   -6.6730  -22.2382 O   0  0  0  0  0  0  0  0  0  0  0  0
   -4.7568   -7.3128  -22.9579 N   0  0  0  0  0  0  0  0  0  0  0  0
   -3.3048   -7.1392  -23.2920 C   0  0  0  0  0  0  0  0  0  0  0  0
   -5.0675   -8.1403  -22.4487 H   0  0  0  0  0  0  0  0  0  0  0  0
 29 30  1  0  0  0
 30 31  1  0  0  0
 31 32  2  0  0  0
 31 28  1  0  0  0
 28  1  1  0  0  0
  1  2  1  0  0  0
  3  2  1  0  0  0
  3  4  1  0  0  0
  4  5  2  0  0  0
  4  6  1  0  0  0
  6 18  1  0  0  0
 18 19  2  0  0  0
 19 20  1  0  0  0
 20 21  2  0  0  0
 21 22  1  0  0  0
 22 23  2  0  0  0
 23 24  1  0  0  0
 24 25  2  0  0  0
 25 26  1  0  0  0
 26 27  2  0  0  0
  6  7  1  0  0  0
  7  8  1  0  0  0
  8 34  1  0  0  0
 34 35  1  0  0  0
 35 36  2  0  0  0
 35 37  2  0  0  0
 35 38  1  0  0  0
 38 39  1  0  0  0
  3  9  1  0  0  0
  9 10  2  0  0  0
 10 11  1  0  0  0
 11 12  1  0  0  0
 11 13  2  0  0  0
 13 14  1  0  0  0
 14 15  2  0  0  0
 15 16  1  0  0  0
 16 17  2  0  0  0
 16  1  1  0  0  0
  8  3  1  0  0  0
 15  9  1  0  0  0
 27 18  1  0  0  0
 27 22  1  0  0  0
 30 33  1  0  0  0
 38 40  1  0  0  0
M  END
> <minimizedAffinity>
-8.02872

> <CNNscore>
0.2905415297

> <CNNaffinity>
6.3136987686

> <CNN_VS>
1.8343917131

> <CNNaffinity_variance>
0.2619905472

$$$$



 40 44  0  0  0  0  0  0  0  0999 V2000
   -6.3068   -3.9726  -22.9292 N   0  0  0  0  0  0  0  0  0  0  0  0
   -6.7875   -2.6761  -22.3478 C   0  0  0  0  0  0  0  0  0  0  0  0
   -7.2389   -1.5694  -23.2540 C   0  0  0  0  0  0  0  0  0  0  0  0
   -7.7187   -0.3790  -24.0303 C   0  0  0  0  0  0  0  0  0  0  0  0
   -7.8885   -0.0243  -25.1800 O   0  0  0  0  0  0  0  0  0  0  0  0
   -8.1005    0.6905  -23.0503 N   0  0  0  0  0  0  0  0  0  0  0  0
   -7.8567    0.1610  -21.6681 C   0  0  0  0  0  0  0  0  0  0  0  0
   -7.3242   -1.2356  -21.7941 C   0  0  0  0  0  0  0  0  0  0  0  0
   -7.2097   -1.7591  -24.7417 C   0  0  0  0  0  0  0  0  0  0  0  0
   -7.6612   -0.6523  -25.6479 C   0  0  0  0  0  0  0  0  0  0  0  0
   -7.6320   -0.8420  -27.1355 C   0  0  0  0  0  0  0  0  0  0  0  0
   -8.0835    0.2647  -28.0418 F   0  0  0  0  0  0  0  0  0  0  0  0
   -7.1513   -2.1385  -27.7169 C   0  0  0  0  0  0  0  0  0  0  0  0
   -6.6999   -3.2453  -26.8108 C   0  0  0  0  0  0  0  0  0  0  0  0
   -6.7291   -3.0556  -25.3231 C   0  0  0  0  0  0  0  0  0  0  0  0
   -6.2776   -4.1624  -24.4168 C   0  0  0  0  0  0  0  0  0  0  0  0
   -5.7970   -5.4589  -24.9983 O   0  0  0  0  0  0  0  0  0  0  0  0
   -8.6326    2.0506  -23.3923 C   0  0  0  0  0  0  0  0  0  0  0  0
   -7.6876    3.2001  -23.5808 C   0  0  0  0  0  0  0  0  0  0  0  0
   -8.2197    4.5602  -23.9228 N   0  0  0  0  0  0  0  0  0  0  0  0
   -9.6969    4.7707  -24.0763 C   0  0  0  0  0  0  0  0  0  0  0  0
  -10.6419    3.6212  -23.8878 C   0  0  0  0  0  0  0  0  0  0  0  0
  -12.1192    3.8318  -24.0413 C   0  0  0  0  0  0  0  0  0  0  0  0
  -13.0642    2.6822  -23.8527 C   0  0  0  0  0  0  0  0  0  0  0  0
  -12.5320    1.3221  -23.5107 C   0  0  0  0  0  0  0  0  0  0  0  0
  -11.0548    1.1116  -23.3572 C   0  0  0  0  0  0  0  0  0  0  0  0
  -10.1098    2.2611  -23.5458 C   0  0  0  0  0  0  0  0  0  0  0  0
   -5.8554   -5.0794  -22.0229 C   0  0  0  0  0  0  0  0  0  0  0  0
   -3.2397   -7.5618  -23.6801 C   0  0  0  0  0  0  0  0  0  0  0  0
   -3.8400   -6.3154  -23.1003 N   0  0  0  0  0  0  0  0  0  0  0  0
   -5.2551   -6.3258  -22.6028 C   0  0  0  0  0  0  0  0  0  0  0  0
   -6.0698   -7.5826  -22.6850 O   0  0  0  0  0  0  0  0  0  0  0  0
   -3.3053   -5.4906  -23.0463 H   0  0  0  0  0  0  0  0  0  0  0  0
   -6.9438   -2.1398  -20.6592 C   0  0  0  0  0  0  0  0  0  0  0  0
   -6.2191   -1.5852  -19.4689 S   0  0  0  0  0  0  0  0  0  0  0  0
   -4.9257   -1.6508  -20.2257 O   0  0  0  0  0  0  0  0  0  0  0  0
   -7.5126   -1.5196  -18.7120 O   0  0  0  0  0  0  0  0  0  0  0  0
   -5.4945   -1.0305  -18.2784 N   0  0  0  0  0  0  0  0  0  0  0  0
   -4.9396    0.3625  -18.3200 C   0  0  0  0  0  0  0  0  0  0  0  0
   -5.3790   -1.6006  -17.4405 H   0  0  0  0  0  0  0  0  0  0  0  0
 29 30  1  0  0  0
 30 31  1  0  0  0
 31 32  2  0  0  0
 31 28  1  0  0  0
 28  1  1  0  0  0
  1  2  1  0  0  0
  3  2  1  0  0  0
  3  4  1  0  0  0
  4  5  2  0  0  0
  4  6  1  0  0  0
  6 18  1  0  0  0
 18 19  2  0  0  0
 19 20  1  0  0  0
 20 21  2  0  0  0
 21 22  1  0  0  0
 22 23  2  0  0  0
 23 24  1  0  0  0
 24 25  2  0  0  0
 25 26  1  0  0  0
 26 27  2  0  0  0
  6  7  1  0  0  0
  7  8  1  0  0  0
  8 34  1  0  0  0
 34 35  1  0  0  0
 35 36  2  0  0  0
 35 37  2  0  0  0
 35 38  1  0  0  0
 38 39  1  0  0  0
  3  9  1  0  0  0
  9 10  2  0  0  0
 10 11  1  0  0  0
 11 12  1  0  0  0
 11 13  2  0  0  0
 13 14  1  0  0  0
 14 15  2  0  0  0
 15 16  1  0  0  0
 16 17  2  0  0  0
 16  1  1  0  0  0
  8  3  1  0  0  0
 15  9  1  0  0  0
 27 18  1  0  0  0
 27 22  1  0  0  0
 30 33  1  0  0  0
 38 40  1  0  0  0
M  END
> <minimizedAffinity>
-7.92985

> <CNNscore>
0.2593419552

> <CNNaffinity>
6.3831353188

> <CNN_VS>
1.6554148197

> <CNNaffinity_variance>
0.3164545894

$$$$



 40 44  0  0  0  0  0  0  0  0999 V2000
   -6.3780   -3.2148  -23.0399 N   0  0  0  0  0  0  0  0  0  0  0  0
   -6.9990   -1.9666  -22.4862 C   0  0  0  0  0  0  0  0  0  0  0  0
   -7.4672   -0.8861  -23.4152 C   0  0  0  0  0  0  0  0  0  0  0  0
   -7.9795    0.2740  -24.2163 C   0  0  0  0  0  0  0  0  0  0  0  0
   -8.0916    0.6295  -25.3727 O   0  0  0  0  0  0  0  0  0  0  0  0
   -8.5138    1.2982  -23.2594 N   0  0  0  0  0  0  0  0  0  0  0  0
   -8.3316    0.7711  -21.8669 C   0  0  0  0  0  0  0  0  0  0  0  0
   -7.6848   -0.5788  -21.9632 C   0  0  0  0  0  0  0  0  0  0  0  0
   -7.3144   -1.0536  -24.8980 C   0  0  0  0  0  0  0  0  0  0  0  0
   -7.7826    0.0269  -25.8271 C   0  0  0  0  0  0  0  0  0  0  0  0
   -7.6299   -0.1407  -27.3098 C   0  0  0  0  0  0  0  0  0  0  0  0
   -8.0981    0.9399  -28.2389 F   0  0  0  0  0  0  0  0  0  0  0  0
   -7.0089   -1.3888  -27.8635 C   0  0  0  0  0  0  0  0  0  0  0  0
   -6.5408   -2.4694  -26.9344 C   0  0  0  0  0  0  0  0  0  0  0  0
   -6.6935   -2.3018  -25.4517 C   0  0  0  0  0  0  0  0  0  0  0  0
   -6.2253   -3.3824  -24.5226 C   0  0  0  0  0  0  0  0  0  0  0  0
   -5.6044   -4.6305  -25.0763 O   0  0  0  0  0  0  0  0  0  0  0  0
   -9.1232    2.6178  -23.6300 C   0  0  0  0  0  0  0  0  0  0  0  0
   -8.2425    3.8034  -23.8923 C   0  0  0  0  0  0  0  0  0  0  0  0
   -8.8519    5.1230  -24.2628 N   0  0  0  0  0  0  0  0  0  0  0  0
  -10.3420    5.2569  -24.3711 C   0  0  0  0  0  0  0  0  0  0  0  0
  -11.2226    4.0713  -24.1088 C   0  0  0  0  0  0  0  0  0  0  0  0
  -12.7128    4.2053  -24.2171 C   0  0  0  0  0  0  0  0  0  0  0  0
  -13.5934    3.0197  -23.9547 C   0  0  0  0  0  0  0  0  0  0  0  0
  -12.9840    1.7001  -23.5842 C   0  0  0  0  0  0  0  0  0  0  0  0
  -11.4939    1.5661  -23.4759 C   0  0  0  0  0  0  0  0  0  0  0  0
  -10.6132    2.7517  -23.7382 C   0  0  0  0  0  0  0  0  0  0  0  0
   -5.9098   -4.2954  -22.1107 C   0  0  0  0  0  0  0  0  0  0  0  0
   -7.9297   -7.4978  -23.3001 C   0  0  0  0  0  0  0  0  0  0  0  0
   -7.5774   -6.0662  -23.0235 N   0  0  0  0  0  0  0  0  0  0  0  0
   -6.2621   -5.7269  -22.3873 C   0  0  0  0  0  0  0  0  0  0  0  0
   -5.2990   -6.8193  -22.0276 O   0  0  0  0  0  0  0  0  0  0  0  0
   -8.2095   -5.3493  -23.2596 H   0  0  0  0  0  0  0  0  0  0  0  0
   -7.3197   -1.4658  -20.8100 C   0  0  0  0  0  0  0  0  0  0  0  0
   -6.7997   -0.8657  -19.5375 S   0  0  0  0  0  0  0  0  0  0  0  0
   -5.6135   -0.3231  -20.2781 O   0  0  0  0  0  0  0  0  0  0  0  0
   -7.9859   -1.4084  -18.7968 O   0  0  0  0  0  0  0  0  0  0  0  0
   -6.2796   -0.2656  -18.2650 N   0  0  0  0  0  0  0  0  0  0  0  0
   -4.8973    0.3152  -18.2196 C   0  0  0  0  0  0  0  0  0  0  0  0
   -6.8660   -0.2525  -17.4304 H   0  0  0  0  0  0  0  0  0  0  0  0
 29 30  1  0  0  0
 30 31  1  0  0  0
 31 32  2  0  0  0
 31 28  1  0  0  0
 28  1  1  0  0  0
  1  2  1  0  0  0
  3  2  1  0  0  0
  3  4  1  0  0  0
  4  5  2  0  0  0
  4  6  1  0  0  0
  6 18  1  0  0  0
 18 19  2  0  0  0
 19 20  1  0  0  0
 20 21  2  0  0  0
 21 22  1  0  0  0
 22 23  2  0  0  0
 23 24  1  0  0  0
 24 25  2  0  0  0
 25 26  1  0  0  0
 26 27  2  0  0  0
  6  7  1  0  0  0
  7  8  1  0  0  0
  8 34  1  0  0  0
 34 35  1  0  0  0
 35 36  2  0  0  0
 35 37  2  0  0  0
 35 38  1  0  0  0
 38 39  1  0  0  0
  3  9  1  0  0  0
  9 10  2  0  0  0
 10 11  1  0  0  0
 11 12  1  0  0  0
 11 13  2  0  0  0
 13 14  1  0  0  0
 14 15  2  0  0  0
 15 16  1  0  0  0
 16 17  2  0  0  0
 16  1  1  0  0  0
  8  3  1  0  0  0
 15  9  1  0  0  0
 27 18  1  0  0  0
 27 22  1  0  0  0
 30 33  1  0  0  0
 38 40  1  0  0  0
M  END
> <minimizedAffinity>
-7.52625

> <CNNscore>
0.2441533357

> <CNNaffinity>
6.3862662315

> <CNN_VS>
1.5592281818

> <CNNaffinity_variance>
0.1246358603

$$$$
