


 39 44  0  0  0  0  0  0  0  0999 V2000
    9.3519    0.7949   22.9272 N   0  0  0  0  0  0  0  0  0  0  0  0
    8.2173   -0.1824   22.8406 C   0  0  0  0  0  0  0  0  0  0  0  0
    8.3083   -1.5019   23.5482 C   0  0  0  0  0  0  0  0  0  0  0  0
    8.2563   -2.8524   24.1988 C   0  0  0  0  0  0  0  0  0  0  0  0
    8.9346   -3.5724   24.9044 O   0  0  0  0  0  0  0  0  0  0  0  0
    6.9423   -3.4855   23.8485 N   0  0  0  0  0  0  0  0  0  0  0  0
    6.1822   -2.5262   22.9814 C   0  0  0  0  0  0  0  0  0  0  0  0
    7.0264   -1.3003   22.7958 C   0  0  0  0  0  0  0  0  0  0  0  0
    9.5339   -1.8440   24.3425 C   0  0  0  0  0  0  0  0  0  0  0  0
    9.6249   -3.1635   25.0501 C   0  0  0  0  0  0  0  0  0  0  0  0
   10.8505   -3.5056   25.8443 C   0  0  0  0  0  0  0  0  0  0  0  0
   10.9416   -4.8251   26.5520 Cl  0  0  0  0  0  0  0  0  0  0  0  0
   11.9851   -2.5282   25.9309 C   0  0  0  0  0  0  0  0  0  0  0  0
   11.8941   -1.2088   25.2233 C   0  0  0  0  0  0  0  0  0  0  0  0
   10.6685   -0.8667   24.4291 C   0  0  0  0  0  0  0  0  0  0  0  0
   10.5775    0.4528   23.7214 C   0  0  0  0  0  0  0  0  0  0  0  0
   11.7121    1.4301   23.8080 O   0  0  0  0  0  0  0  0  0  0  0  0
    6.4713   -4.8400   24.2882 C   0  0  0  0  0  0  0  0  0  0  0  0
    7.0941   -6.0754   23.7084 C   0  0  0  0  0  0  0  0  0  0  0  0
    6.6230   -7.4299   24.1481 N   0  0  0  0  0  0  0  0  0  0  0  0
    5.5291   -7.5491   25.1674 C   0  0  0  0  0  0  0  0  0  0  0  0
    4.9063   -6.3138   25.7472 C   0  0  0  0  0  0  0  0  0  0  0  0
    3.8123   -6.4330   26.7666 C   0  0  0  0  0  0  0  0  0  0  0  0
    3.1896   -5.1977   27.3463 C   0  0  0  0  0  0  0  0  0  0  0  0
    3.6606   -3.8431   26.9066 C   0  0  0  0  0  0  0  0  0  0  0  0
    4.7545   -3.7239   25.8873 C   0  0  0  0  0  0  0  0  0  0  0  0
    5.3774   -4.9592   25.3075 C   0  0  0  0  0  0  0  0  0  0  0  0
    9.2609    2.1144   22.2195 C   0  0  0  0  0  0  0  0  0  0  0  0
    8.5709    5.7810   23.5721 C   0  0  0  0  0  0  0  0  0  0  0  0
    9.2493    4.6194   22.9086 N   0  0  0  0  0  0  0  0  0  0  0  0
    8.5824    3.2760   22.8830 C   0  0  0  0  0  0  0  0  0  0  0  0
    7.2371    3.0943   23.5211 O   0  0  0  0  0  0  0  0  0  0  0  0
   10.1323    4.7386   22.4898 H   0  0  0  0  0  0  0  0  0  0  0  0
    6.6540   -0.0859   21.9979 C   0  0  0  0  0  0  0  0  0  0  0  0
    6.4548   -0.1947   20.5153 C   0  0  0  0  0  0  0  0  0  0  0  0
    7.0839    0.6832   19.4743 N   0  0  0  0  0  0  0  0  0  0  0  0
    6.6094    0.2200   18.1289 N   0  0  0  0  0  0  0  0  0  0  0  0
    5.6870   -0.9442   18.3383 N   0  0  0  0  0  0  0  0  0  0  0  0
    5.5914   -1.2005   19.8131 N   0  0  0  0  0  0  0  0  0  0  0  0
 29 30  1  0  0  0
 30 31  1  0  0  0
 31 32  2  0  0  0
 31 28  1  0  0  0
 28  1  1  0  0  0
  1  2  1  0  0  0
  3  2  1  0  0  0
  3  4  1  0  0  0
  4  5  2  0  0  0
  4  6  1  0  0  0
  6 18  1  0  0  0
 18 19  2  0  0  0
 19 20  1  0  0  0
 20 21  2  0  0  0
 21 22  1  0  0  0
 22 23  2  0  0  0
 23 24  1  0  0  0
 24 25  2  0  0  0
 25 26  1  0  0  0
 26 27  2  0  0  0
  6  7  1  0  0  0
  7  8  1  0  0  0
  8 34  1  0  0  0
 34 35  1  0  0  0
 35 36  1  0  0  0
 36 37  2  0  0  0
 37 38  1  0  0  0
 38 39  1  0  0  0
  3  9  1  0  0  0
  9 10  2  0  0  0
 10 11  1  0  0  0
 11 12  1  0  0  0
 11 13  2  0  0  0
 13 14  1  0  0  0
 14 15  2  0  0  0
 15 16  1  0  0  0
 16 17  2  0  0  0
 16  1  1  0  0  0
  8  3  1  0  0  0
 39 35  2  0  0  0
 15  9  1  0  0  0
 27 18  1  0  0  0
 27 22  1  0  0  0
 30 33  1  0  0  0
M  CHG 1  38  -1
M  END
> <minimizedAffinity>
-9.66536

> <CNNscore>
0.5524382591

> <CNNaffinity>
7.2604703903

> <CNN_VS>
4.0109615326

> <CNNaffinity_variance>
0.1774392873

$$$$



 39 44  0  0  0  0  0  0  0  0999 V2000
    5.0079    2.3632   22.2936 N   0  0  0  0  0  0  0  0  0  0  0  0
    6.1066    1.3578   22.1150 C   0  0  0  0  0  0  0  0  0  0  0  0
    6.4902    0.4562   23.2507 C   0  0  0  0  0  0  0  0  0  0  0  0
    6.9811   -0.5074   24.2902 C   0  0  0  0  0  0  0  0  0  0  0  0
    6.7643   -0.8228   25.4434 O   0  0  0  0  0  0  0  0  0  0  0  0
    8.0852   -1.3214   23.6831 N   0  0  0  0  0  0  0  0  0  0  0  0
    8.2766   -0.8608   22.2685 C   0  0  0  0  0  0  0  0  0  0  0  0
    7.2909    0.2378   22.0013 C   0  0  0  0  0  0  0  0  0  0  0  0
    5.7750    0.5601   24.5652 C   0  0  0  0  0  0  0  0  0  0  0  0
    6.1586   -0.3415   25.7010 C   0  0  0  0  0  0  0  0  0  0  0  0
    5.4434   -0.2376   27.0154 C   0  0  0  0  0  0  0  0  0  0  0  0
    5.8269   -1.1392   28.1513 Cl  0  0  0  0  0  0  0  0  0  0  0  0
    4.3447    0.7678   27.1941 C   0  0  0  0  0  0  0  0  0  0  0  0
    3.9612    1.6694   26.0583 C   0  0  0  0  0  0  0  0  0  0  0  0
    4.6763    1.5655   24.7439 C   0  0  0  0  0  0  0  0  0  0  0  0
    4.2928    2.4671   23.6080 C   0  0  0  0  0  0  0  0  0  0  0  0
    3.1941    3.4726   23.7867 O   0  0  0  0  0  0  0  0  0  0  0  0
    8.8615   -2.4055   24.3701 C   0  0  0  0  0  0  0  0  0  0  0  0
    8.2236   -3.7392   24.6238 C   0  0  0  0  0  0  0  0  0  0  0  0
    8.9999   -4.8234   25.3108 N   0  0  0  0  0  0  0  0  0  0  0  0
   10.4141   -4.5738   25.7441 C   0  0  0  0  0  0  0  0  0  0  0  0
   11.0520   -3.2400   25.4905 C   0  0  0  0  0  0  0  0  0  0  0  0
   12.4662   -2.9905   25.9239 C   0  0  0  0  0  0  0  0  0  0  0  0
   13.1040   -1.6567   25.6702 C   0  0  0  0  0  0  0  0  0  0  0  0
   12.3277   -0.5726   24.9832 C   0  0  0  0  0  0  0  0  0  0  0  0
   10.9135   -0.8222   24.5498 C   0  0  0  0  0  0  0  0  0  0  0  0
   10.2756   -2.1559   24.8035 C   0  0  0  0  0  0  0  0  0  0  0  0
    4.6244    3.2648   21.1578 C   0  0  0  0  0  0  0  0  0  0  0  0
    1.1759    3.8877   19.2950 C   0  0  0  0  0  0  0  0  0  0  0  0
    2.4387    4.1444   20.0628 N   0  0  0  0  0  0  0  0  0  0  0  0
    3.3616    3.0082   20.3900 C   0  0  0  0  0  0  0  0  0  0  0  0
    3.0218    1.6151   19.9494 O   0  0  0  0  0  0  0  0  0  0  0  0
    2.6618    5.0587   20.3519 H   0  0  0  0  0  0  0  0  0  0  0  0
    7.1335    0.9865   20.7110 C   0  0  0  0  0  0  0  0  0  0  0  0
    6.4811    0.3239   19.5341 C   0  0  0  0  0  0  0  0  0  0  0  0
    6.0138    1.0086   18.2840 N   0  0  0  0  0  0  0  0  0  0  0  0
    5.4253   -0.0318   17.3779 N   0  0  0  0  0  0  0  0  0  0  0  0
    5.5289   -1.3596   18.0679 N   0  0  0  0  0  0  0  0  0  0  0  0
    6.1814   -1.1398   19.4005 N   0  0  0  0  0  0  0  0  0  0  0  0
 29 30  1  0  0  0
 30 31  1  0  0  0
 31 32  2  0  0  0
 31 28  1  0  0  0
 28  1  1  0  0  0
  1  2  1  0  0  0
  3  2  1  0  0  0
  3  4  1  0  0  0
  4  5  2  0  0  0
  4  6  1  0  0  0
  6 18  1  0  0  0
 18 19  2  0  0  0
 19 20  1  0  0  0
 20 21  2  0  0  0
 21 22  1  0  0  0
 22 23  2  0  0  0
 23 24  1  0  0  0
 24 25  2  0  0  0
 25 26  1  0  0  0
 26 27  2  0  0  0
  6  7  1  0  0  0
  7  8  1  0  0  0
  8 34  1  0  0  0
 34 35  1  0  0  0
 35 36  1  0  0  0
 36 37  2  0  0  0
 37 38  1  0  0  0
 38 39  1  0  0  0
  3  9  1  0  0  0
  9 10  2  0  0  0
 10 11  1  0  0  0
 11 12  1  0  0  0
 11 13  2  0  0  0
 13 14  1  0  0  0
 14 15  2  0  0  0
 15 16  1  0  0  0
 16 17  2  0  0  0
 16  1  1  0  0  0
  8  3  1  0  0  0
 39 35  2  0  0  0
 15  9  1  0  0  0
 27 18  1  0  0  0
 27 22  1  0  0  0
 30 33  1  0  0  0
M  CHG 1  38  -1
M  END
> <minimizedAffinity>
-8.14457

> <CNNscore>
0.4857218564

> <CNNaffinity>
7.0227746964

> <CNN_VS>
3.4111151695

> <CNNaffinity_variance>
0.0391276851

$$$$



 39 44  0  0  0  0  0  0  0  0999 V2000
    5.6105    3.3658   22.3761 N   0  0  0  0  0  0  0  0  0  0  0  0
    6.4422    2.1178   22.3483 C   0  0  0  0  0  0  0  0  0  0  0  0
    6.8513    1.4604   23.6330 C   0  0  0  0  0  0  0  0  0  0  0  0
    7.3338    0.6956   24.8297 C   0  0  0  0  0  0  0  0  0  0  0  0
    7.2805    0.7349   26.0430 O   0  0  0  0  0  0  0  0  0  0  0  0
    8.1273   -0.4793   24.3400 N   0  0  0  0  0  0  0  0  0  0  0  0
    8.1352   -0.4408   22.8405 C   0  0  0  0  0  0  0  0  0  0  0  0
    7.3466    0.7581   22.4036 C   0  0  0  0  0  0  0  0  0  0  0  0
    6.4286    2.0510   24.9455 C   0  0  0  0  0  0  0  0  0  0  0  0
    6.8377    1.3936   26.2302 C   0  0  0  0  0  0  0  0  0  0  0  0
    6.4150    1.9841   27.5426 C   0  0  0  0  0  0  0  0  0  0  0  0
    6.8241    1.3267   28.8274 Cl  0  0  0  0  0  0  0  0  0  0  0  0
    5.5833    3.2321   27.5704 C   0  0  0  0  0  0  0  0  0  0  0  0
    5.1742    3.8895   26.2857 C   0  0  0  0  0  0  0  0  0  0  0  0
    5.5969    3.2990   24.9733 C   0  0  0  0  0  0  0  0  0  0  0  0
    5.1878    3.9564   23.6885 C   0  0  0  0  0  0  0  0  0  0  0  0
    4.3561    5.2044   23.7163 O   0  0  0  0  0  0  0  0  0  0  0  0
    8.7956   -1.5116   25.1989 C   0  0  0  0  0  0  0  0  0  0  0  0
    7.9667   -2.4735   25.9977 C   0  0  0  0  0  0  0  0  0  0  0  0
    8.6350   -3.5058   26.8566 N   0  0  0  0  0  0  0  0  0  0  0  0
   10.1321   -3.5762   26.9168 C   0  0  0  0  0  0  0  0  0  0  0  0
   10.9609   -2.6144   26.1181 C   0  0  0  0  0  0  0  0  0  0  0  0
   12.4581   -2.6849   26.1784 C   0  0  0  0  0  0  0  0  0  0  0  0
   13.2869   -1.7230   25.3796 C   0  0  0  0  0  0  0  0  0  0  0  0
   12.6187   -0.6908   24.5207 C   0  0  0  0  0  0  0  0  0  0  0  0
   11.1215   -0.6203   24.4605 C   0  0  0  0  0  0  0  0  0  0  0  0
   10.2927   -1.5821   25.2592 C   0  0  0  0  0  0  0  0  0  0  0  0
    5.2015    4.0232   21.0913 C   0  0  0  0  0  0  0  0  0  0  0  0
    1.3661    4.4821   20.1805 C   0  0  0  0  0  0  0  0  0  0  0  0
    2.7272    4.7410   20.7553 N   0  0  0  0  0  0  0  0  0  0  0  0
    3.8403    3.7643   20.5165 C   0  0  0  0  0  0  0  0  0  0  0  0
    3.5924    2.5287   19.7030 O   0  0  0  0  0  0  0  0  0  0  0  0
    2.8900    5.5519   21.2892 H   0  0  0  0  0  0  0  0  0  0  0  0
    7.0970    1.1804   20.9861 C   0  0  0  0  0  0  0  0  0  0  0  0
    6.4934    0.2139   20.0107 C   0  0  0  0  0  0  0  0  0  0  0  0
    5.6120   -0.9503   20.3540 N   0  0  0  0  0  0  0  0  0  0  0  0
    5.2389   -1.6418   19.0763 N   0  0  0  0  0  0  0  0  0  0  0  0
    5.8897   -0.9050   17.9433 N   0  0  0  0  0  0  0  0  0  0  0  0
    6.6649    0.2419   18.5208 N   0  0  0  0  0  0  0  0  0  0  0  0
 29 30  1  0  0  0
 30 31  1  0  0  0
 31 32  2  0  0  0
 31 28  1  0  0  0
 28  1  1  0  0  0
  1  2  1  0  0  0
  3  2  1  0  0  0
  3  4  1  0  0  0
  4  5  2  0  0  0
  4  6  1  0  0  0
  6 18  1  0  0  0
 18 19  2  0  0  0
 19 20  1  0  0  0
 20 21  2  0  0  0
 21 22  1  0  0  0
 22 23  2  0  0  0
 23 24  1  0  0  0
 24 25  2  0  0  0
 25 26  1  0  0  0
 26 27  2  0  0  0
  6  7  1  0  0  0
  7  8  1  0  0  0
  8 34  1  0  0  0
 34 35  1  0  0  0
 35 36  1  0  0  0
 36 37  2  0  0  0
 37 38  1  0  0  0
 38 39  1  0  0  0
  3  9  1  0  0  0
  9 10  2  0  0  0
 10 11  1  0  0  0
 11 12  1  0  0  0
 11 13  2  0  0  0
 13 14  1  0  0  0
 14 15  2  0  0  0
 15 16  1  0  0  0
 16 17  2  0  0  0
 16  1  1  0  0  0
  8  3  1  0  0  0
 39 35  2  0  0  0
 15  9  1  0  0  0
 27 18  1  0  0  0
 27 22  1  0  0  0
 30 33  1  0  0  0
M  CHG 1  38  -1
M  END
> <minimizedAffinity>
-8.48910

> <CNNscore>
0.4708276093

> <CNNaffinity>
6.8120903969

> <CNN_VS>
3.2073202133

> <CNNaffinity_variance>
0.0182694253

$$$$



 39 44  0  0  0  0  0  0  0  0999 V2000
    9.8704    0.6775   23.0708 N   0  0  0  0  0  0  0  0  0  0  0  0
    8.5242    0.0564   23.2986 C   0  0  0  0  0  0  0  0  0  0  0  0
    8.3853   -1.1130   24.2275 C   0  0  0  0  0  0  0  0  0  0  0  0
    8.0930   -2.2805   25.1228 C   0  0  0  0  0  0  0  0  0  0  0  0
    8.6675   -3.0470   25.8704 O   0  0  0  0  0  0  0  0  0  0  0  0
    6.6220   -2.5647   25.0487 N   0  0  0  0  0  0  0  0  0  0  0  0
    6.0051   -1.5729   24.1076 C   0  0  0  0  0  0  0  0  0  0  0  0
    7.0949   -0.6757   23.6001 C   0  0  0  0  0  0  0  0  0  0  0  0
    9.5926   -1.6615   24.9287 C   0  0  0  0  0  0  0  0  0  0  0  0
    9.4537   -2.8310   25.8576 C   0  0  0  0  0  0  0  0  0  0  0  0
   10.6610   -3.3794   26.5587 C   0  0  0  0  0  0  0  0  0  0  0  0
   10.5221   -4.5490   27.4877 Cl  0  0  0  0  0  0  0  0  0  0  0  0
   12.0073   -2.7584   26.3309 C   0  0  0  0  0  0  0  0  0  0  0  0
   12.1462   -1.5889   25.4019 C   0  0  0  0  0  0  0  0  0  0  0  0
   10.9389   -1.0404   24.7008 C   0  0  0  0  0  0  0  0  0  0  0  0
   11.0777    0.1291   23.7719 C   0  0  0  0  0  0  0  0  0  0  0  0
   12.4240    0.7502   23.5440 O   0  0  0  0  0  0  0  0  0  0  0  0
    5.8955   -3.6502   25.7862 C   0  0  0  0  0  0  0  0  0  0  0  0
    5.5350   -4.9243   25.0813 C   0  0  0  0  0  0  0  0  0  0  0  0
    4.8085   -6.0098   25.8188 N   0  0  0  0  0  0  0  0  0  0  0  0
    4.4425   -5.8212   27.2612 C   0  0  0  0  0  0  0  0  0  0  0  0
    4.8029   -4.5471   27.9660 C   0  0  0  0  0  0  0  0  0  0  0  0
    4.4368   -4.3585   29.4085 C   0  0  0  0  0  0  0  0  0  0  0  0
    4.7973   -3.0844   30.1132 C   0  0  0  0  0  0  0  0  0  0  0  0
    5.5239   -1.9989   29.3757 C   0  0  0  0  0  0  0  0  0  0  0  0
    5.8899   -2.1875   27.9334 C   0  0  0  0  0  0  0  0  0  0  0  0
    5.5294   -3.4616   27.2285 C   0  0  0  0  0  0  0  0  0  0  0  0
   10.0093    1.8471   22.1418 C   0  0  0  0  0  0  0  0  0  0  0  0
   10.7636    5.6510   22.9851 C   0  0  0  0  0  0  0  0  0  0  0  0
   10.9312    4.2547   22.4633 N   0  0  0  0  0  0  0  0  0  0  0  0
    9.8417    3.2434   22.6636 C   0  0  0  0  0  0  0  0  0  0  0  0
    8.5846    3.6283   23.3859 O   0  0  0  0  0  0  0  0  0  0  0  0
   11.7562    4.0021   21.9892 H   0  0  0  0  0  0  0  0  0  0  0  0
    6.9242    0.4595   22.6346 C   0  0  0  0  0  0  0  0  0  0  0  0
    6.5802    0.1802   21.2017 C   0  0  0  0  0  0  0  0  0  0  0  0
    5.6885   -0.9201   20.7074 N   0  0  0  0  0  0  0  0  0  0  0  0
    5.6246   -0.8283   19.2116 N   0  0  0  0  0  0  0  0  0  0  0  0
    6.4768    0.3287   18.7814 N   0  0  0  0  0  0  0  0  0  0  0  0
    7.0674    0.9519   20.0113 N   0  0  0  0  0  0  0  0  0  0  0  0
 29 30  1  0  0  0
 30 31  1  0  0  0
 31 32  2  0  0  0
 31 28  1  0  0  0
 28  1  1  0  0  0
  1  2  1  0  0  0
  3  2  1  0  0  0
  3  4  1  0  0  0
  4  5  2  0  0  0
  4  6  1  0  0  0
  6 18  1  0  0  0
 18 19  2  0  0  0
 19 20  1  0  0  0
 20 21  2  0  0  0
 21 22  1  0  0  0
 22 23  2  0  0  0
 23 24  1  0  0  0
 24 25  2  0  0  0
 25 26  1  0  0  0
 26 27  2  0  0  0
  6  7  1  0  0  0
  7  8  1  0  0  0
  8 34  1  0  0  0
 34 35  1  0  0  0
 35 36  1  0  0  0
 36 37  2  0  0  0
 37 38  1  0  0  0
 38 39  1  0  0  0
  3  9  1  0  0  0
  9 10  2  0  0  0
 10 11  1  0  0  0
 11 12  1  0  0  0
 11 13  2  0  0  0
 13 14  1  0  0  0
 14 15  2  0  0  0
 15 16  1  0  0  0
 16 17  2  0  0  0
 16  1  1  0  0  0
  8  3  1  0  0  0
 39 35  2  0  0  0
 15  9  1  0  0  0
 27 18  1  0  0  0
 27 22  1  0  0  0
 30 33  1  0  0  0
M  CHG 1  38  -1
M  END
> <minimizedAffinity>
-8.60340

> <CNNscore>
0.3906429112

> <CNNaffinity>
6.9657616615

> <CNN_VS>
2.7211253643

> <CNNaffinity_variance>
0.1295429170

$$$$



 39 44  0  0  0  0  0  0  0  0999 V2000
    6.7181   -3.3980   22.7879 N   0  0  0  0  0  0  0  0  0  0  0  0
    7.0363   -2.0227   22.2808 C   0  0  0  0  0  0  0  0  0  0  0  0
    8.2240   -1.2811   22.8187 C   0  0  0  0  0  0  0  0  0  0  0  0
    9.3719   -0.4223   23.2601 C   0  0  0  0  0  0  0  0  0  0  0  0
   10.3137   -0.4497   24.0273 O   0  0  0  0  0  0  0  0  0  0  0  0
    9.3075    0.8665   22.4954 N   0  0  0  0  0  0  0  0  0  0  0  0
    8.1197    0.8043   21.5814 C   0  0  0  0  0  0  0  0  0  0  0  0
    7.4501   -0.5230   21.7813 C   0  0  0  0  0  0  0  0  0  0  0  0
    9.0936   -1.9149   23.8639 C   0  0  0  0  0  0  0  0  0  0  0  0
   10.2812   -1.1733   24.4018 C   0  0  0  0  0  0  0  0  0  0  0  0
   11.1507   -1.8071   25.4469 C   0  0  0  0  0  0  0  0  0  0  0  0
   12.3385   -1.0655   25.9849 Cl  0  0  0  0  0  0  0  0  0  0  0  0
   10.8326   -3.1825   25.9540 C   0  0  0  0  0  0  0  0  0  0  0  0
    9.6449   -3.9240   25.4160 C   0  0  0  0  0  0  0  0  0  0  0  0
    8.7754   -3.2902   24.3710 C   0  0  0  0  0  0  0  0  0  0  0  0
    7.5876   -4.0318   23.8329 C   0  0  0  0  0  0  0  0  0  0  0  0
    7.2695   -5.4072   24.3400 O   0  0  0  0  0  0  0  0  0  0  0  0
   10.2630    2.0158   22.6224 C   0  0  0  0  0  0  0  0  0  0  0  0
   11.7395    1.7803   22.5022 C   0  0  0  0  0  0  0  0  0  0  0  0
   12.6951    2.9296   22.6292 N   0  0  0  0  0  0  0  0  0  0  0  0
   12.1741    4.3143   22.8764 C   0  0  0  0  0  0  0  0  0  0  0  0
   10.6976    4.5497   22.9966 C   0  0  0  0  0  0  0  0  0  0  0  0
   10.1766    5.9345   23.2439 C   0  0  0  0  0  0  0  0  0  0  0  0
    8.7001    6.1699   23.3641 C   0  0  0  0  0  0  0  0  0  0  0  0
    7.7445    5.0206   23.2371 C   0  0  0  0  0  0  0  0  0  0  0  0
    8.2655    3.6359   22.9899 C   0  0  0  0  0  0  0  0  0  0  0  0
    9.7420    3.4005   22.8696 C   0  0  0  0  0  0  0  0  0  0  0  0
    5.5304   -4.1396   22.2498 C   0  0  0  0  0  0  0  0  0  0  0  0
    4.1188   -7.0989   24.4859 C   0  0  0  0  0  0  0  0  0  0  0  0
    4.4243   -5.7148   23.9948 N   0  0  0  0  0  0  0  0  0  0  0  0
    5.2249   -5.5236   22.7409 C   0  0  0  0  0  0  0  0  0  0  0  0
    5.7200   -6.7165   21.9780 O   0  0  0  0  0  0  0  0  0  0  0  0
    4.0993   -4.9319   24.4956 H   0  0  0  0  0  0  0  0  0  0  0  0
    6.2222   -1.0072   21.0687 C   0  0  0  0  0  0  0  0  0  0  0  0
    5.7700   -0.3301   19.8089 C   0  0  0  0  0  0  0  0  0  0  0  0
    6.4164   -0.4534   18.4609 N   0  0  0  0  0  0  0  0  0  0  0  0
    5.6380    0.3896   17.4948 N   0  0  0  0  0  0  0  0  0  0  0  0
    4.5106    1.0339   18.2457 N   0  0  0  0  0  0  0  0  0  0  0  0
    4.5922    0.5891   19.6758 N   0  0  0  0  0  0  0  0  0  0  0  0
 29 30  1  0  0  0
 30 31  1  0  0  0
 31 32  2  0  0  0
 31 28  1  0  0  0
 28  1  1  0  0  0
  1  2  1  0  0  0
  3  2  1  0  0  0
  3  4  1  0  0  0
  4  5  2  0  0  0
  4  6  1  0  0  0
  6 18  1  0  0  0
 18 19  2  0  0  0
 19 20  1  0  0  0
 20 21  2  0  0  0
 21 22  1  0  0  0
 22 23  2  0  0  0
 23 24  1  0  0  0
 24 25  2  0  0  0
 25 26  1  0  0  0
 26 27  2  0  0  0
  6  7  1  0  0  0
  7  8  1  0  0  0
  8 34  1  0  0  0
 34 35  1  0  0  0
 35 36  1  0  0  0
 36 37  2  0  0  0
 37 38  1  0  0  0
 38 39  1  0  0  0
  3  9  1  0  0  0
  9 10  2  0  0  0
 10 11  1  0  0  0
 11 12  1  0  0  0
 11 13  2  0  0  0
 13 14  1  0  0  0
 14 15  2  0  0  0
 15 16  1  0  0  0
 16 17  2  0  0  0
 16  1  1  0  0  0
  8  3  1  0  0  0
 39 35  2  0  0  0
 15  9  1  0  0  0
 27 18  1  0  0  0
 27 22  1  0  0  0
 30 33  1  0  0  0
M  CHG 1  38  -1
M  END
> <minimizedAffinity>
-9.27012

> <CNNscore>
0.3612948060

> <CNNaffinity>
6.9521064758

> <CNN_VS>
2.5117599964

> <CNNaffinity_variance>
0.3089052141

$$$$



 39 44  0  0  0  0  0  0  0  0999 V2000
    5.8697    2.9700   22.4992 N   0  0  0  0  0  0  0  0  0  0  0  0
    7.1275    2.2227   22.8299 C   0  0  0  0  0  0  0  0  0  0  0  0
    7.0813    1.0564   23.7720 C   0  0  0  0  0  0  0  0  0  0  0  0
    7.1900   -0.1233   24.6920 C   0  0  0  0  0  0  0  0  0  0  0  0
    6.4890   -0.8208   25.3980 O   0  0  0  0  0  0  0  0  0  0  0  0
    8.6272   -0.5512   24.7294 N   0  0  0  0  0  0  0  0  0  0  0  0
    9.4068    0.3640   23.8324 C   0  0  0  0  0  0  0  0  0  0  0  0
    8.4514    1.3576   23.2408 C   0  0  0  0  0  0  0  0  0  0  0  0
    5.7772    0.6374   24.3834 C   0  0  0  0  0  0  0  0  0  0  0  0
    5.7310   -0.5289   25.3255 C   0  0  0  0  0  0  0  0  0  0  0  0
    4.4269   -0.9479   25.9368 C   0  0  0  0  0  0  0  0  0  0  0  0
    4.3806   -2.1143   26.8790 Cl  0  0  0  0  0  0  0  0  0  0  0  0
    3.1691   -0.2006   25.6061 C   0  0  0  0  0  0  0  0  0  0  0  0
    3.2153    0.9657   24.6640 C   0  0  0  0  0  0  0  0  0  0  0  0
    4.5194    1.3847   24.0527 C   0  0  0  0  0  0  0  0  0  0  0  0
    4.5656    2.5510   23.1105 C   0  0  0  0  0  0  0  0  0  0  0  0
    3.3078    3.2983   22.7798 O   0  0  0  0  0  0  0  0  0  0  0  0
    9.1865   -1.6938   25.5241 C   0  0  0  0  0  0  0  0  0  0  0  0
    8.2620   -2.6298   26.2448 C   0  0  0  0  0  0  0  0  0  0  0  0
    8.8213   -3.7724   27.0395 N   0  0  0  0  0  0  0  0  0  0  0  0
   10.3052   -3.9790   27.1136 C   0  0  0  0  0  0  0  0  0  0  0  0
   11.2297   -3.0430   26.3929 C   0  0  0  0  0  0  0  0  0  0  0  0
   12.7136   -3.2497   26.4671 C   0  0  0  0  0  0  0  0  0  0  0  0
   13.6380   -2.3137   25.7464 C   0  0  0  0  0  0  0  0  0  0  0  0
   13.0786   -1.1711   24.9516 C   0  0  0  0  0  0  0  0  0  0  0  0
   11.5948   -0.9645   24.8775 C   0  0  0  0  0  0  0  0  0  0  0  0
   10.6703   -1.9005   25.5982 C   0  0  0  0  0  0  0  0  0  0  0  0
    5.9160    4.1364   21.5570 C   0  0  0  0  0  0  0  0  0  0  0  0
    3.5508    7.3130   21.8111 C   0  0  0  0  0  0  0  0  0  0  0  0
    4.0959    5.9823   21.3846 N   0  0  0  0  0  0  0  0  0  0  0  0
    5.3709    5.4671   21.9836 C   0  0  0  0  0  0  0  0  0  0  0  0
    6.1009    6.2827   23.0093 O   0  0  0  0  0  0  0  0  0  0  0  0
    3.6168    5.4470   20.7114 H   0  0  0  0  0  0  0  0  0  0  0  0
    8.8042    2.4590   22.2856 C   0  0  0  0  0  0  0  0  0  0  0  0
   10.0572    3.2574   22.4911 C   0  0  0  0  0  0  0  0  0  0  0  0
   10.1272    4.6975   22.9050 N   0  0  0  0  0  0  0  0  0  0  0  0
   11.5735    5.0860   22.9886 N   0  0  0  0  0  0  0  0  0  0  0  0
   12.3975    3.8861   22.6263 N   0  0  0  0  0  0  0  0  0  0  0  0
   11.4604    2.7560   22.3188 N   0  0  0  0  0  0  0  0  0  0  0  0
 29 30  1  0  0  0
 30 31  1  0  0  0
 31 32  2  0  0  0
 31 28  1  0  0  0
 28  1  1  0  0  0
  1  2  1  0  0  0
  3  2  1  0  0  0
  3  4  1  0  0  0
  4  5  2  0  0  0
  4  6  1  0  0  0
  6 18  1  0  0  0
 18 19  2  0  0  0
 19 20  1  0  0  0
 20 21  2  0  0  0
 21 22  1  0  0  0
 22 23  2  0  0  0
 23 24  1  0  0  0
 24 25  2  0  0  0
 25 26  1  0  0  0
 26 27  2  0  0  0
  6  7  1  0  0  0
  7  8  1  0  0  0
  8 34  1  0  0  0
 34 35  1  0  0  0
 35 36  1  0  0  0
 36 37  2  0  0  0
 37 38  1  0  0  0
 38 39  1  0  0  0
  3  9  1  0  0  0
  9 10  2  0  0  0
 10 11  1  0  0  0
 11 12  1  0  0  0
 11 13  2  0  0  0
 13 14  1  0  0  0
 14 15  2  0  0  0
 15 16  1  0  0  0
 16 17  2  0  0  0
 16  1  1  0  0  0
  8  3  1  0  0  0
 39 35  2  0  0  0
 15  9  1  0  0  0
 27 18  1  0  0  0
 27 22  1  0  0  0
 30 33  1  0  0  0
M  CHG 1  38  -1
M  END
> <minimizedAffinity>
-7.34310

> <CNNscore>
0.2924815416

> <CNNaffinity>
6.6714057922

> <CNN_VS>
1.9512630701

> <CNNaffinity_variance>
0.2474876344

$$$$



 39 44  0  0  0  0  0  0  0  0999 V2000
    9.4875    0.7982   23.5491 N   0  0  0  0  0  0  0  0  0  0  0  0
    8.1652    0.2542   24.0025 C   0  0  0  0  0  0  0  0  0  0  0  0
    8.1161   -0.9483   24.8977 C   0  0  0  0  0  0  0  0  0  0  0  0
    7.9106   -2.1373   25.7888 C   0  0  0  0  0  0  0  0  0  0  0  0
    8.5564   -2.9749   26.3870 O   0  0  0  0  0  0  0  0  0  0  0  0
    6.4346   -2.3227   25.9814 N   0  0  0  0  0  0  0  0  0  0  0  0
    5.7278   -1.2482   25.2095 C   0  0  0  0  0  0  0  0  0  0  0  0
    6.7671   -0.3988   24.5397 C   0  0  0  0  0  0  0  0  0  0  0  0
    9.3893   -1.6069   25.3396 C   0  0  0  0  0  0  0  0  0  0  0  0
    9.3402   -2.8094   26.2348 C   0  0  0  0  0  0  0  0  0  0  0  0
   10.6134   -3.4679   26.6767 C   0  0  0  0  0  0  0  0  0  0  0  0
   10.5644   -4.6705   27.5719 Cl  0  0  0  0  0  0  0  0  0  0  0  0
   11.9357   -2.9239   26.2233 C   0  0  0  0  0  0  0  0  0  0  0  0
   11.9848   -1.7214   25.3281 C   0  0  0  0  0  0  0  0  0  0  0  0
   10.7116   -1.0629   24.8862 C   0  0  0  0  0  0  0  0  0  0  0  0
   10.7607    0.1397   23.9909 C   0  0  0  0  0  0  0  0  0  0  0  0
   12.0830    0.6837   23.5375 O   0  0  0  0  0  0  0  0  0  0  0  0
    5.7803   -3.3944   26.8020 C   0  0  0  0  0  0  0  0  0  0  0  0
    5.6438   -3.2245   28.2861 C   0  0  0  0  0  0  0  0  0  0  0  0
    4.9895   -4.2962   29.1067 N   0  0  0  0  0  0  0  0  0  0  0  0
    4.4716   -5.5378   28.4431 C   0  0  0  0  0  0  0  0  0  0  0  0
    4.6081   -5.7076   26.9590 C   0  0  0  0  0  0  0  0  0  0  0  0
    4.0902   -6.9493   26.2955 C   0  0  0  0  0  0  0  0  0  0  0  0
    4.2267   -7.1191   24.8113 C   0  0  0  0  0  0  0  0  0  0  0  0
    4.8810   -6.0474   23.9908 C   0  0  0  0  0  0  0  0  0  0  0  0
    5.3989   -4.8058   24.6543 C   0  0  0  0  0  0  0  0  0  0  0  0
    5.2624   -4.6359   26.1384 C   0  0  0  0  0  0  0  0  0  0  0  0
    9.5366    2.0008   22.6538 C   0  0  0  0  0  0  0  0  0  0  0  0
    6.3502    4.1526   21.6706 C   0  0  0  0  0  0  0  0  0  0  0  0
    7.5884    3.6986   22.3852 N   0  0  0  0  0  0  0  0  0  0  0  0
    8.2983    2.4548   21.9392 C   0  0  0  0  0  0  0  0  0  0  0  0
    7.7701    1.6650   20.7785 O   0  0  0  0  0  0  0  0  0  0  0  0
    7.9351    4.2170   23.1470 H   0  0  0  0  0  0  0  0  0  0  0  0
    6.5035    0.7912   23.6654 C   0  0  0  0  0  0  0  0  0  0  0  0
    5.0947    1.1628   23.3091 C   0  0  0  0  0  0  0  0  0  0  0  0
    4.4368    0.9507   21.9778 N   0  0  0  0  0  0  0  0  0  0  0  0
    3.0319    1.4686   22.0673 N   0  0  0  0  0  0  0  0  0  0  0  0
    2.8215    2.0008   23.4539 N   0  0  0  0  0  0  0  0  0  0  0  0
    4.0964    1.8118   24.2213 N   0  0  0  0  0  0  0  0  0  0  0  0
 29 30  1  0  0  0
 30 31  1  0  0  0
 31 32  2  0  0  0
 31 28  1  0  0  0
 28  1  1  0  0  0
  1  2  1  0  0  0
  3  2  1  0  0  0
  3  4  1  0  0  0
  4  5  2  0  0  0
  4  6  1  0  0  0
  6 18  1  0  0  0
 18 19  2  0  0  0
 19 20  1  0  0  0
 20 21  2  0  0  0
 21 22  1  0  0  0
 22 23  2  0  0  0
 23 24  1  0  0  0
 24 25  2  0  0  0
 25 26  1  0  0  0
 26 27  2  0  0  0
  6  7  1  0  0  0
  7  8  1  0  0  0
  8 34  1  0  0  0
 34 35  1  0  0  0
 35 36  1  0  0  0
 36 37  2  0  0  0
 37 38  1  0  0  0
 38 39  1  0  0  0
  3  9  1  0  0  0
  9 10  2  0  0  0
 10 11  1  0  0  0
 11 12  1  0  0  0
 11 13  2  0  0  0
 13 14  1  0  0  0
 14 15  2  0  0  0
 15 16  1  0  0  0
 16 17  2  0  0  0
 16  1  1  0  0  0
  8  3  1  0  0  0
 39 35  2  0  0  0
 15  9  1  0  0  0
 27 18  1  0  0  0
 27 22  1  0  0  0
 30 33  1  0  0  0
M  CHG 1  38  -1
M  END
> <minimizedAffinity>
-7.52481

> <CNNscore>
0.2552919388

> <CNNaffinity>
6.5957860947

> <CNN_VS>
1.6838510036

> <CNNaffinity_variance>
0.4251739383

$$$$



 39 44  0  0  0  0  0  0  0  0999 V2000
   10.6128    0.7457   22.8606 N   0  0  0  0  0  0  0  0  0  0  0  0
    9.1942    0.3268   23.1096 C   0  0  0  0  0  0  0  0  0  0  0  0
    8.8992   -0.7934   24.0625 C   0  0  0  0  0  0  0  0  0  0  0  0
    8.4524   -1.8905   24.9828 C   0  0  0  0  0  0  0  0  0  0  0  0
    8.9192   -2.7167   25.7417 O   0  0  0  0  0  0  0  0  0  0  0  0
    6.9554   -1.9639   24.9241 N   0  0  0  0  0  0  0  0  0  0  0  0
    6.4769   -0.9122   23.9675 C   0  0  0  0  0  0  0  0  0  0  0  0
    7.6783   -0.1888   23.4351 C   0  0  0  0  0  0  0  0  0  0  0  0
   10.0229   -1.4948   24.7665 C   0  0  0  0  0  0  0  0  0  0  0  0
    9.7280   -2.6150   25.7194 C   0  0  0  0  0  0  0  0  0  0  0  0
   10.8517   -3.3163   26.4232 C   0  0  0  0  0  0  0  0  0  0  0  0
   10.5568   -4.4366   27.3762 Cl  0  0  0  0  0  0  0  0  0  0  0  0
   12.2703   -2.8974   26.1742 C   0  0  0  0  0  0  0  0  0  0  0  0
   12.5652   -1.7772   25.2213 C   0  0  0  0  0  0  0  0  0  0  0  0
   11.4416   -1.0759   24.5174 C   0  0  0  0  0  0  0  0  0  0  0  0
   11.7365    0.0444   23.5645 C   0  0  0  0  0  0  0  0  0  0  0  0
   13.1551    0.4633   23.3154 O   0  0  0  0  0  0  0  0  0  0  0  0
    6.0890   -2.9210   25.6878 C   0  0  0  0  0  0  0  0  0  0  0  0
    5.7467   -4.2572   25.0982 C   0  0  0  0  0  0  0  0  0  0  0  0
    4.8803   -5.2142   25.8619 N   0  0  0  0  0  0  0  0  0  0  0  0
    4.3561   -4.8352   27.2153 C   0  0  0  0  0  0  0  0  0  0  0  0
    4.6984   -3.4990   27.8048 C   0  0  0  0  0  0  0  0  0  0  0  0
    4.1741   -3.1200   29.1583 C   0  0  0  0  0  0  0  0  0  0  0  0
    4.5164   -1.7838   29.7478 C   0  0  0  0  0  0  0  0  0  0  0  0
    5.3828   -0.8267   28.9840 C   0  0  0  0  0  0  0  0  0  0  0  0
    5.9070   -1.2058   27.6307 C   0  0  0  0  0  0  0  0  0  0  0  0
    5.5648   -2.5419   27.0411 C   0  0  0  0  0  0  0  0  0  0  0  0
   10.9077    1.8660   21.9076 C   0  0  0  0  0  0  0  0  0  0  0  0
   11.7030    5.7516   22.0491 C   0  0  0  0  0  0  0  0  0  0  0  0
   11.3047    4.4046   21.5228 N   0  0  0  0  0  0  0  0  0  0  0  0
   11.3060    3.2130   22.4339 C   0  0  0  0  0  0  0  0  0  0  0  0
   11.7058    3.3684   23.8713 O   0  0  0  0  0  0  0  0  0  0  0  0
   11.0423    4.3026   20.5794 H   0  0  0  0  0  0  0  0  0  0  0  0
    7.6615    0.9409   22.4484 C   0  0  0  0  0  0  0  0  0  0  0  0
    7.0347    0.7491   21.0993 C   0  0  0  0  0  0  0  0  0  0  0  0
    7.6759    0.0886   19.9150 N   0  0  0  0  0  0  0  0  0  0  0  0
    6.6941    0.1155   18.7813 N   0  0  0  0  0  0  0  0  0  0  0  0
    5.4461    0.7926   19.2649 N   0  0  0  0  0  0  0  0  0  0  0  0
    5.6566    1.1842   20.6975 N   0  0  0  0  0  0  0  0  0  0  0  0
 29 30  1  0  0  0
 30 31  1  0  0  0
 31 32  2  0  0  0
 31 28  1  0  0  0
 28  1  1  0  0  0
  1  2  1  0  0  0
  3  2  1  0  0  0
  3  4  1  0  0  0
  4  5  2  0  0  0
  4  6  1  0  0  0
  6 18  1  0  0  0
 18 19  2  0  0  0
 19 20  1  0  0  0
 20 21  2  0  0  0
 21 22  1  0  0  0
 22 23  2  0  0  0
 23 24  1  0  0  0
 24 25  2  0  0  0
 25 26  1  0  0  0
 26 27  2  0  0  0
  6  7  1  0  0  0
  7  8  1  0  0  0
  8 34  1  0  0  0
 34 35  1  0  0  0
 35 36  1  0  0  0
 36 37  2  0  0  0
 37 38  1  0  0  0
 38 39  1  0  0  0
  3  9  1  0  0  0
  9 10  2  0  0  0
 10 11  1  0  0  0
 11 12  1  0  0  0
 11 13  2  0  0  0
 13 14  1  0  0  0
 14 15  2  0  0  0
 15 16  1  0  0  0
 16 17  2  0  0  0
 16  1  1  0  0  0
  8  3  1  0  0  0
 39 35  2  0  0  0
 15  9  1  0  0  0
 27 18  1  0  0  0
 27 22  1  0  0  0
 30 33  1  0  0  0
M  CHG 1  38  -1
M  END
> <minimizedAffinity>
-8.15495

> <CNNscore>
0.2538208961

> <CNNaffinity>
6.9348745346

> <CNN_VS>
1.7602161169

> <CNNaffinity_variance>
0.1441121995

$$$$



 39 44  0  0  0  0  0  0  0  0999 V2000
    6.6569    2.0273   21.6526 N   0  0  0  0  0  0  0  0  0  0  0  0
    7.9661    1.8859   22.3709 C   0  0  0  0  0  0  0  0  0  0  0  0
    8.4178    0.5375   22.8481 C   0  0  0  0  0  0  0  0  0  0  0  0
    8.9979   -0.7391   23.3807 C   0  0  0  0  0  0  0  0  0  0  0  0
    8.7348   -1.9233   23.4503 O   0  0  0  0  0  0  0  0  0  0  0  0
   10.3154   -0.4178   24.0217 N   0  0  0  0  0  0  0  0  0  0  0  0
   10.5496    1.0575   23.8854 C   0  0  0  0  0  0  0  0  0  0  0  0
    9.3769    1.6479   23.1601 C   0  0  0  0  0  0  0  0  0  0  0  0
    7.5604   -0.6695   22.6071 C   0  0  0  0  0  0  0  0  0  0  0  0
    8.0122   -2.0178   23.0843 C   0  0  0  0  0  0  0  0  0  0  0  0
    7.1548   -3.2247   22.8432 C   0  0  0  0  0  0  0  0  0  0  0  0
    7.6066   -4.5732   23.3204 Cl  0  0  0  0  0  0  0  0  0  0  0  0
    5.8456   -3.0833   22.1249 C   0  0  0  0  0  0  0  0  0  0  0  0
    5.3938   -1.7349   21.6476 C   0  0  0  0  0  0  0  0  0  0  0  0
    6.2512   -0.5280   21.8887 C   0  0  0  0  0  0  0  0  0  0  0  0
    5.7994    0.8204   21.4115 C   0  0  0  0  0  0  0  0  0  0  0  0
    4.4902    0.9619   20.6932 O   0  0  0  0  0  0  0  0  0  0  0  0
   11.2369   -1.3994   24.6830 C   0  0  0  0  0  0  0  0  0  0  0  0
   12.6805   -1.4618   24.2801 C   0  0  0  0  0  0  0  0  0  0  0  0
   13.6020   -2.4434   24.9413 N   0  0  0  0  0  0  0  0  0  0  0  0
   13.0799   -3.3626   26.0055 C   0  0  0  0  0  0  0  0  0  0  0  0
   11.6364   -3.3003   26.4084 C   0  0  0  0  0  0  0  0  0  0  0  0
   11.1143   -4.2196   27.4726 C   0  0  0  0  0  0  0  0  0  0  0  0
    9.6707   -4.1571   27.8754 C   0  0  0  0  0  0  0  0  0  0  0  0
    8.7493   -3.1755   27.2142 C   0  0  0  0  0  0  0  0  0  0  0  0
    9.2713   -2.2562   26.1500 C   0  0  0  0  0  0  0  0  0  0  0  0
   10.7149   -2.3186   25.7471 C   0  0  0  0  0  0  0  0  0  0  0  0
    6.2051    3.3758   21.1754 C   0  0  0  0  0  0  0  0  0  0  0  0
    3.4597    6.0869   22.1042 C   0  0  0  0  0  0  0  0  0  0  0  0
    4.4955    5.3259   21.3309 N   0  0  0  0  0  0  0  0  0  0  0  0
    5.1692    4.1367   21.9487 C   0  0  0  0  0  0  0  0  0  0  0  0
    4.8071    3.7083   23.3399 O   0  0  0  0  0  0  0  0  0  0  0  0
    4.7332    5.6071   20.4178 H   0  0  0  0  0  0  0  0  0  0  0  0
    9.1950    3.0948   22.8085 C   0  0  0  0  0  0  0  0  0  0  0  0
   10.3934    3.9671   22.5788 C   0  0  0  0  0  0  0  0  0  0  0  0
   10.4887    5.4325   22.8846 N   0  0  0  0  0  0  0  0  0  0  0  0
   11.8610    5.8984   22.4978 N   0  0  0  0  0  0  0  0  0  0  0  0
   12.6138    4.7210   21.9529 N   0  0  0  0  0  0  0  0  0  0  0  0
   11.7067    3.5274   22.0029 N   0  0  0  0  0  0  0  0  0  0  0  0
 29 30  1  0  0  0
 30 31  1  0  0  0
 31 32  2  0  0  0
 31 28  1  0  0  0
 28  1  1  0  0  0
  1  2  1  0  0  0
  3  2  1  0  0  0
  3  4  1  0  0  0
  4  5  2  0  0  0
  4  6  1  0  0  0
  6 18  1  0  0  0
 18 19  2  0  0  0
 19 20  1  0  0  0
 20 21  2  0  0  0
 21 22  1  0  0  0
 22 23  2  0  0  0
 23 24  1  0  0  0
 24 25  2  0  0  0
 25 26  1  0  0  0
 26 27  2  0  0  0
  6  7  1  0  0  0
  7  8  1  0  0  0
  8 34  1  0  0  0
 34 35  1  0  0  0
 35 36  1  0  0  0
 36 37  2  0  0  0
 37 38  1  0  0  0
 38 39  1  0  0  0
  3  9  1  0  0  0
  9 10  2  0  0  0
 10 11  1  0  0  0
 11 12  1  0  0  0
 11 13  2  0  0  0
 13 14  1  0  0  0
 14 15  2  0  0  0
 15 16  1  0  0  0
 16 17  2  0  0  0
 16  1  1  0  0  0
  8  3  1  0  0  0
 39 35  2  0  0  0
 15  9  1  0  0  0
 27 18  1  0  0  0
 27 22  1  0  0  0
 30 33  1  0  0  0
M  CHG 1  38  -1
M  END
> <minimizedAffinity>
-8.08735

> <CNNscore>
0.2282760441

> <CNNaffinity>
6.7513213158

> <CNN_VS>
1.5411648750

> <CNNaffinity_variance>
0.3567056954

$$$$
