


 39 44  0  0  0  0  0  0  0  0999 V2000
  -11.5216    4.0439  -24.0494 N   0  0  0  0  0  0  0  0  0  0  0  0
  -10.1589    3.4231  -23.9630 C   0  0  0  0  0  0  0  0  0  0  0  0
  -10.0199    1.9528  -23.7006 C   0  0  0  0  0  0  0  0  0  0  0  0
   -9.7255    0.5043  -23.4451 C   0  0  0  0  0  0  0  0  0  0  0  0
  -10.3085   -0.5429  -23.2454 O   0  0  0  0  0  0  0  0  0  0  0  0
   -8.2359    0.3277  -23.4412 N   0  0  0  0  0  0  0  0  0  0  0  0
   -7.6097    1.6670  -23.6943 C   0  0  0  0  0  0  0  0  0  0  0  0
   -8.7122    2.6713  -23.8546 C   0  0  0  0  0  0  0  0  0  0  0  0
  -11.2436    1.1033  -23.5245 C   0  0  0  0  0  0  0  0  0  0  0  0
  -11.1046   -0.3670  -23.2621 C   0  0  0  0  0  0  0  0  0  0  0  0
  -12.3283   -1.2164  -23.0861 C   0  0  0  0  0  0  0  0  0  0  0  0
  -12.1893   -2.6867  -22.8237 Cl  0  0  0  0  0  0  0  0  0  0  0  0
  -13.6910   -0.5955  -23.1724 C   0  0  0  0  0  0  0  0  0  0  0  0
  -13.8300    0.8748  -23.4348 C   0  0  0  0  0  0  0  0  0  0  0  0
  -12.6063    1.7242  -23.6109 C   0  0  0  0  0  0  0  0  0  0  0  0
  -12.7453    3.1945  -23.8733 C   0  0  0  0  0  0  0  0  0  0  0  0
  -14.1081    3.8154  -23.9597 O   0  0  0  0  0  0  0  0  0  0  0  0
   -7.5016   -0.9619  -23.2225 C   0  0  0  0  0  0  0  0  0  0  0  0
   -6.9625   -1.2969  -21.8634 C   0  0  0  0  0  0  0  0  0  0  0  0
   -6.2282   -2.5864  -21.6447 N   0  0  0  0  0  0  0  0  0  0  0  0
   -6.0329   -3.5409  -22.7852 C   0  0  0  0  0  0  0  0  0  0  0  0
   -6.5719   -3.2059  -24.1443 C   0  0  0  0  0  0  0  0  0  0  0  0
   -6.3766   -4.1605  -25.2848 C   0  0  0  0  0  0  0  0  0  0  0  0
   -6.9157   -3.8254  -26.6439 C   0  0  0  0  0  0  0  0  0  0  0  0
   -7.6500   -2.5359  -26.8626 C   0  0  0  0  0  0  0  0  0  0  0  0
   -7.8453   -1.5814  -25.7221 C   0  0  0  0  0  0  0  0  0  0  0  0
   -7.3063   -1.9164  -24.3630 C   0  0  0  0  0  0  0  0  0  0  0  0
  -11.6606    5.5143  -24.3118 C   0  0  0  0  0  0  0  0  0  0  0  0
  -13.7409    6.3056  -27.5976 C   0  0  0  0  0  0  0  0  0  0  0  0
  -12.6522    5.8043  -26.6956 N   0  0  0  0  0  0  0  0  0  0  0  0
  -12.7493    6.0155  -25.2137 C   0  0  0  0  0  0  0  0  0  0  0  0
  -13.9351    6.7280  -24.6338 O   0  0  0  0  0  0  0  0  0  0  0  0
  -11.8739    5.3367  -27.0762 H   0  0  0  0  0  0  0  0  0  0  0  0
   -8.5377    4.1369  -24.1221 C   0  0  0  0  0  0  0  0  0  0  0  0
   -7.3241    4.8537  -23.6090 C   0  0  0  0  0  0  0  0  0  0  0  0
   -6.0470    5.0765  -24.3636 N   0  0  0  0  0  0  0  0  0  0  0  0
   -5.1081    5.8340  -23.4722 N   0  0  0  0  0  0  0  0  0  0  0  0
   -5.8049    6.0794  -22.1668 N   0  0  0  0  0  0  0  0  0  0  0  0
   -7.1744    5.4736  -22.2513 N   0  0  0  0  0  0  0  0  0  0  0  0
 29 30  1  0  0  0
 30 31  1  0  0  0
 31 32  2  0  0  0
 31 28  1  0  0  0
 28  1  1  0  0  0
  1  2  1  0  0  0
  3  2  1  0  0  0
  3  4  1  0  0  0
  4  5  2  0  0  0
  4  6  1  0  0  0
  6 18  1  0  0  0
 18 19  2  0  0  0
 19 20  1  0  0  0
 20 21  2  0  0  0
 21 22  1  0  0  0
 22 23  2  0  0  0
 23 24  1  0  0  0
 24 25  2  0  0  0
 25 26  1  0  0  0
 26 27  2  0  0  0
  6  7  1  0  0  0
  7  8  1  0  0  0
  8 34  1  0  0  0
 34 35  1  0  0  0
 35 36  1  0  0  0
 36 37  2  0  0  0
 37 38  1  0  0  0
 38 39  1  0  0  0
  3  9  1  0  0  0
  9 10  2  0  0  0
 10 11  1  0  0  0
 11 12  1  0  0  0
 11 13  2  0  0  0
 13 14  1  0  0  0
 14 15  2  0  0  0
 15 16  1  0  0  0
 16 17  2  0  0  0
 16  1  1  0  0  0
  8  3  1  0  0  0
 39 35  2  0  0  0
 15  9  1  0  0  0
 27 18  1  0  0  0
 27 22  1  0  0  0
 30 33  1  0  0  0
M  CHG 1  38  -1
M  END
> <minimizedAffinity>
-7.25092

> <CNNscore>
0.3033417761

> <CNNaffinity>
6.5858755112

> <CNN_VS>
1.9977711439

> <CNNaffinity_variance>
0.2309200466

$$$$



 39 44  0  0  0  0  0  0  0  0999 V2000
   -9.1771    2.6905  -24.5567 N   0  0  0  0  0  0  0  0  0  0  0  0
   -8.2475    1.5159  -24.6352 C   0  0  0  0  0  0  0  0  0  0  0  0
   -8.7485    0.1398  -24.3108 C   0  0  0  0  0  0  0  0  0  0  0  0
   -9.1043   -1.2874  -24.0171 C   0  0  0  0  0  0  0  0  0  0  0  0
  -10.0580   -1.9572  -23.6733 O   0  0  0  0  0  0  0  0  0  0  0  0
   -7.8755   -2.1230  -24.2216 N   0  0  0  0  0  0  0  0  0  0  0  0
   -6.7602   -1.2122  -24.6415 C   0  0  0  0  0  0  0  0  0  0  0  0
   -7.2997    0.1863  -24.6967 C   0  0  0  0  0  0  0  0  0  0  0  0
  -10.1793   -0.0618  -23.9078 C   0  0  0  0  0  0  0  0  0  0  0  0
  -10.6803   -1.4378  -23.5833 C   0  0  0  0  0  0  0  0  0  0  0  0
  -12.1110   -1.6394  -23.1803 C   0  0  0  0  0  0  0  0  0  0  0  0
  -12.6121   -3.0155  -22.8558 Cl  0  0  0  0  0  0  0  0  0  0  0  0
  -13.0407   -0.4648  -23.1018 C   0  0  0  0  0  0  0  0  0  0  0  0
  -12.5396    0.9112  -23.4263 C   0  0  0  0  0  0  0  0  0  0  0  0
  -11.1089    1.1128  -23.8293 C   0  0  0  0  0  0  0  0  0  0  0  0
  -10.6078    2.4889  -24.1538 C   0  0  0  0  0  0  0  0  0  0  0  0
  -11.5375    3.6635  -24.0753 O   0  0  0  0  0  0  0  0  0  0  0  0
   -7.7790   -3.6087  -24.0382 C   0  0  0  0  0  0  0  0  0  0  0  0
   -7.1502   -4.1721  -22.7983 C   0  0  0  0  0  0  0  0  0  0  0  0
   -7.0537   -5.6577  -22.6149 N   0  0  0  0  0  0  0  0  0  0  0  0
   -7.5859   -6.5799  -23.6715 C   0  0  0  0  0  0  0  0  0  0  0  0
   -8.2146   -6.0165  -24.9113 C   0  0  0  0  0  0  0  0  0  0  0  0
   -8.7469   -6.9388  -25.9679 C   0  0  0  0  0  0  0  0  0  0  0  0
   -9.3756   -6.3753  -27.2077 C   0  0  0  0  0  0  0  0  0  0  0  0
   -9.4721   -4.8897  -27.3911 C   0  0  0  0  0  0  0  0  0  0  0  0
   -8.9399   -3.9675  -26.3346 C   0  0  0  0  0  0  0  0  0  0  0  0
   -8.3112   -4.5309  -25.0947 C   0  0  0  0  0  0  0  0  0  0  0  0
   -8.6760    4.0666  -24.8812 C   0  0  0  0  0  0  0  0  0  0  0  0
   -6.6055    6.0720  -22.1533 C   0  0  0  0  0  0  0  0  0  0  0  0
   -6.9380    5.1148  -23.2593 N   0  0  0  0  0  0  0  0  0  0  0  0
   -8.3435    5.0238  -23.7752 C   0  0  0  0  0  0  0  0  0  0  0  0
   -9.4167    5.8901  -23.1852 O   0  0  0  0  0  0  0  0  0  0  0  0
   -6.2337    4.5463  -23.6466 H   0  0  0  0  0  0  0  0  0  0  0  0
   -6.5263    1.4156  -25.0719 C   0  0  0  0  0  0  0  0  0  0  0  0
   -5.5814    2.0370  -24.0866 C   0  0  0  0  0  0  0  0  0  0  0  0
   -5.2436    1.4977  -22.7282 N   0  0  0  0  0  0  0  0  0  0  0  0
   -4.2618    2.4342  -22.0887 N   0  0  0  0  0  0  0  0  0  0  0  0
   -3.9928    3.5523  -23.0518 N   0  0  0  0  0  0  0  0  0  0  0  0
   -4.8083    3.3068  -24.2865 N   0  0  0  0  0  0  0  0  0  0  0  0
 29 30  1  0  0  0
 30 31  1  0  0  0
 31 32  2  0  0  0
 31 28  1  0  0  0
 28  1  1  0  0  0
  1  2  1  0  0  0
  3  2  1  0  0  0
  3  4  1  0  0  0
  4  5  2  0  0  0
  4  6  1  0  0  0
  6 18  1  0  0  0
 18 19  2  0  0  0
 19 20  1  0  0  0
 20 21  2  0  0  0
 21 22  1  0  0  0
 22 23  2  0  0  0
 23 24  1  0  0  0
 24 25  2  0  0  0
 25 26  1  0  0  0
 26 27  2  0  0  0
  6  7  1  0  0  0
  7  8  1  0  0  0
  8 34  1  0  0  0
 34 35  1  0  0  0
 35 36  1  0  0  0
 36 37  2  0  0  0
 37 38  1  0  0  0
 38 39  1  0  0  0
  3  9  1  0  0  0
  9 10  2  0  0  0
 10 11  1  0  0  0
 11 12  1  0  0  0
 11 13  2  0  0  0
 13 14  1  0  0  0
 14 15  2  0  0  0
 15 16  1  0  0  0
 16 17  2  0  0  0
 16  1  1  0  0  0
  8  3  1  0  0  0
 39 35  2  0  0  0
 15  9  1  0  0  0
 27 18  1  0  0  0
 27 22  1  0  0  0
 30 33  1  0  0  0
M  CHG 1  38  -1
M  END
> <minimizedAffinity>
-7.25047

> <CNNscore>
0.2502712607

> <CNNaffinity>
6.5692319870

> <CNN_VS>
1.6440899372

> <CNNaffinity_variance>
0.1535053998

$$$$



 39 44  0  0  0  0  0  0  0  0999 V2000
  -11.6055    3.8894  -24.0114 N   0  0  0  0  0  0  0  0  0  0  0  0
  -10.2214    3.3212  -23.9035 C   0  0  0  0  0  0  0  0  0  0  0  0
  -10.0302    1.8559  -23.6462 C   0  0  0  0  0  0  0  0  0  0  0  0
   -9.6844    0.4185  -23.3928 C   0  0  0  0  0  0  0  0  0  0  0  0
  -10.2299   -0.6516  -23.2091 O   0  0  0  0  0  0  0  0  0  0  0  0
   -8.1895    0.2996  -23.3628 N   0  0  0  0  0  0  0  0  0  0  0  0
   -7.6112    1.6636  -23.5976 C   0  0  0  0  0  0  0  0  0  0  0  0
   -8.7488    2.6254  -23.7728 C   0  0  0  0  0  0  0  0  0  0  0  0
  -11.2230    0.9587  -23.4968 C   0  0  0  0  0  0  0  0  0  0  0  0
  -11.0317   -0.5066  -23.2395 C   0  0  0  0  0  0  0  0  0  0  0  0
  -12.2245   -1.4038  -23.0900 C   0  0  0  0  0  0  0  0  0  0  0  0
  -12.0333   -2.8691  -22.8327 Cl  0  0  0  0  0  0  0  0  0  0  0  0
  -13.6085   -0.8356  -23.1979 C   0  0  0  0  0  0  0  0  0  0  0  0
  -13.7998    0.6297  -23.4552 C   0  0  0  0  0  0  0  0  0  0  0  0
  -12.6070    1.5268  -23.6047 C   0  0  0  0  0  0  0  0  0  0  0  0
  -12.7982    2.9922  -23.8620 C   0  0  0  0  0  0  0  0  0  0  0  0
  -14.1823    3.5604  -23.9699 O   0  0  0  0  0  0  0  0  0  0  0  0
   -7.4097   -0.9618  -23.1374 C   0  0  0  0  0  0  0  0  0  0  0  0
   -7.1798   -1.9145  -24.2731 C   0  0  0  0  0  0  0  0  0  0  0  0
   -6.4000   -3.1759  -24.0477 N   0  0  0  0  0  0  0  0  0  0  0  0
   -5.8501   -3.4846  -22.6868 C   0  0  0  0  0  0  0  0  0  0  0  0
   -6.0799   -2.5320  -21.5512 C   0  0  0  0  0  0  0  0  0  0  0  0
   -5.5300   -2.8407  -20.1901 C   0  0  0  0  0  0  0  0  0  0  0  0
   -5.7599   -1.8880  -19.0546 C   0  0  0  0  0  0  0  0  0  0  0  0
   -6.5396   -0.6266  -19.2799 C   0  0  0  0  0  0  0  0  0  0  0  0
   -7.0896   -0.3179  -20.6409 C   0  0  0  0  0  0  0  0  0  0  0  0
   -6.8597   -1.2706  -21.7765 C   0  0  0  0  0  0  0  0  0  0  0  0
  -11.7967    5.3548  -24.2688 C   0  0  0  0  0  0  0  0  0  0  0  0
  -13.9493    6.3739  -27.4432 C   0  0  0  0  0  0  0  0  0  0  0  0
  -13.5919    5.8945  -26.0676 N   0  0  0  0  0  0  0  0  0  0  0  0
  -12.1541    5.8343  -25.6444 C   0  0  0  0  0  0  0  0  0  0  0  0
  -11.0737    6.2536  -26.5968 O   0  0  0  0  0  0  0  0  0  0  0  0
  -14.3010    5.6192  -25.4426 H   0  0  0  0  0  0  0  0  0  0  0  0
   -8.6266    4.0982  -24.0295 C   0  0  0  0  0  0  0  0  0  0  0  0
   -7.4969    4.8745  -23.4204 C   0  0  0  0  0  0  0  0  0  0  0  0
   -7.6301    6.0091  -22.4483 N   0  0  0  0  0  0  0  0  0  0  0  0
   -6.2512    6.4883  -22.1035 N   0  0  0  0  0  0  0  0  0  0  0  0
   -5.2658    5.6499  -22.8624 N   0  0  0  0  0  0  0  0  0  0  0  0
   -6.0357    4.6525  -23.6763 N   0  0  0  0  0  0  0  0  0  0  0  0
 29 30  1  0  0  0
 30 31  1  0  0  0
 31 32  2  0  0  0
 31 28  1  0  0  0
 28  1  1  0  0  0
  1  2  1  0  0  0
  3  2  1  0  0  0
  3  4  1  0  0  0
  4  5  2  0  0  0
  4  6  1  0  0  0
  6 18  1  0  0  0
 18 19  2  0  0  0
 19 20  1  0  0  0
 20 21  2  0  0  0
 21 22  1  0  0  0
 22 23  2  0  0  0
 23 24  1  0  0  0
 24 25  2  0  0  0
 25 26  1  0  0  0
 26 27  2  0  0  0
  6  7  1  0  0  0
  7  8  1  0  0  0
  8 34  1  0  0  0
 34 35  1  0  0  0
 35 36  1  0  0  0
 36 37  2  0  0  0
 37 38  1  0  0  0
 38 39  1  0  0  0
  3  9  1  0  0  0
  9 10  2  0  0  0
 10 11  1  0  0  0
 11 12  1  0  0  0
 11 13  2  0  0  0
 13 14  1  0  0  0
 14 15  2  0  0  0
 15 16  1  0  0  0
 16 17  2  0  0  0
 16  1  1  0  0  0
  8  3  1  0  0  0
 39 35  2  0  0  0
 15  9  1  0  0  0
 27 18  1  0  0  0
 27 22  1  0  0  0
 30 33  1  0  0  0
M  CHG 1  38  -1
M  END
> <minimizedAffinity>
-8.17736

> <CNNscore>
0.2451622188

> <CNNaffinity>
6.6472358704

> <CNN_VS>
1.6296510696

> <CNNaffinity_variance>
0.1936129630

$$$$



 39 44  0  0  0  0  0  0  0  0999 V2000
   -9.3500   -2.5281  -23.3685 N   0  0  0  0  0  0  0  0  0  0  0  0
   -8.3284   -1.4301  -23.3398 C   0  0  0  0  0  0  0  0  0  0  0  0
   -8.7674    0.0038  -23.3761 C   0  0  0  0  0  0  0  0  0  0  0  0
   -9.0541    1.4758  -23.4065 C   0  0  0  0  0  0  0  0  0  0  0  0
   -9.9980    2.2394  -23.4554 O   0  0  0  0  0  0  0  0  0  0  0  0
   -7.7437    2.2044  -23.3610 N   0  0  0  0  0  0  0  0  0  0  0  0
   -6.6471    1.1826  -23.3025 C   0  0  0  0  0  0  0  0  0  0  0  0
   -7.2798   -0.1774  -23.3118 C   0  0  0  0  0  0  0  0  0  0  0  0
  -10.2279    0.3397  -23.4411 C   0  0  0  0  0  0  0  0  0  0  0  0
  -10.6668    1.7735  -23.4774 C   0  0  0  0  0  0  0  0  0  0  0  0
  -12.1273    2.1093  -23.5425 C   0  0  0  0  0  0  0  0  0  0  0  0
  -12.5663    3.5432  -23.5788 Cl  0  0  0  0  0  0  0  0  0  0  0  0
  -13.1488    1.0113  -23.5713 C   0  0  0  0  0  0  0  0  0  0  0  0
  -12.7099   -0.4226  -23.5350 C   0  0  0  0  0  0  0  0  0  0  0  0
  -11.2494   -0.7584  -23.4699 C   0  0  0  0  0  0  0  0  0  0  0  0
  -10.8104   -2.1923  -23.4336 C   0  0  0  0  0  0  0  0  0  0  0  0
  -11.8319   -3.2903  -23.4624 O   0  0  0  0  0  0  0  0  0  0  0  0
   -7.5619    3.6933  -23.3722 C   0  0  0  0  0  0  0  0  0  0  0  0
   -7.2057    4.4149  -22.1063 C   0  0  0  0  0  0  0  0  0  0  0  0
   -7.0239    5.9038  -22.1174 N   0  0  0  0  0  0  0  0  0  0  0  0
   -7.1983    6.6711  -23.3944 C   0  0  0  0  0  0  0  0  0  0  0  0
   -7.5546    5.9495  -24.6603 C   0  0  0  0  0  0  0  0  0  0  0  0
   -7.7290    6.7169  -25.9373 C   0  0  0  0  0  0  0  0  0  0  0  0
   -8.0852    5.9952  -27.2032 C   0  0  0  0  0  0  0  0  0  0  0  0
   -8.2670    4.5063  -27.1921 C   0  0  0  0  0  0  0  0  0  0  0  0
   -8.0926    3.7390  -25.9151 C   0  0  0  0  0  0  0  0  0  0  0  0
   -7.7363    4.4606  -24.6492 C   0  0  0  0  0  0  0  0  0  0  0  0
   -8.9109   -3.9620  -23.3322 C   0  0  0  0  0  0  0  0  0  0  0  0
   -9.8833   -5.8858  -26.6645 C   0  0  0  0  0  0  0  0  0  0  0  0
  -10.0108   -5.1079  -25.3883 N   0  0  0  0  0  0  0  0  0  0  0  0
   -8.7834   -4.7398  -24.6085 C   0  0  0  0  0  0  0  0  0  0  0  0
   -7.4285   -5.1496  -25.1049 O   0  0  0  0  0  0  0  0  0  0  0  0
  -10.9000   -4.8390  -25.0624 H   0  0  0  0  0  0  0  0  0  0  0  0
   -6.5524   -1.4884  -23.2650 C   0  0  0  0  0  0  0  0  0  0  0  0
   -6.0457   -2.0188  -21.9567 C   0  0  0  0  0  0  0  0  0  0  0  0
   -5.7623   -1.2079  -20.7270 N   0  0  0  0  0  0  0  0  0  0  0  0
   -5.2748   -2.1410  -19.6586 N   0  0  0  0  0  0  0  0  0  0  0  0
   -5.2569   -3.5286  -20.2279 N   0  0  0  0  0  0  0  0  0  0  0  0
   -5.7334   -3.4531  -21.6482 N   0  0  0  0  0  0  0  0  0  0  0  0
 29 30  1  0  0  0
 30 31  1  0  0  0
 31 32  2  0  0  0
 31 28  1  0  0  0
 28  1  1  0  0  0
  1  2  1  0  0  0
  3  2  1  0  0  0
  3  4  1  0  0  0
  4  5  2  0  0  0
  4  6  1  0  0  0
  6 18  1  0  0  0
 18 19  2  0  0  0
 19 20  1  0  0  0
 20 21  2  0  0  0
 21 22  1  0  0  0
 22 23  2  0  0  0
 23 24  1  0  0  0
 24 25  2  0  0  0
 25 26  1  0  0  0
 26 27  2  0  0  0
  6  7  1  0  0  0
  7  8  1  0  0  0
  8 34  1  0  0  0
 34 35  1  0  0  0
 35 36  1  0  0  0
 36 37  2  0  0  0
 37 38  1  0  0  0
 38 39  1  0  0  0
  3  9  1  0  0  0
  9 10  2  0  0  0
 10 11  1  0  0  0
 11 12  1  0  0  0
 11 13  2  0  0  0
 13 14  1  0  0  0
 14 15  2  0  0  0
 15 16  1  0  0  0
 16 17  2  0  0  0
 16  1  1  0  0  0
  8  3  1  0  0  0
 39 35  2  0  0  0
 15  9  1  0  0  0
 27 18  1  0  0  0
 27 22  1  0  0  0
 30 33  1  0  0  0
M  CHG 1  38  -1
M  END
> <minimizedAffinity>
-7.50099

> <CNNscore>
0.2155719250

> <CNNaffinity>
6.4721770287

> <CNN_VS>
1.3952196836

> <CNNaffinity_variance>
0.2018759251

$$$$



 39 44  0  0  0  0  0  0  0  0999 V2000
   -7.6095   -4.6219  -22.8532 N   0  0  0  0  0  0  0  0  0  0  0  0
   -8.7126   -3.7498  -23.3754 C   0  0  0  0  0  0  0  0  0  0  0  0
   -8.6762   -2.2697  -23.1347 C   0  0  0  0  0  0  0  0  0  0  0  0
   -8.7754   -0.7817  -22.9728 C   0  0  0  0  0  0  0  0  0  0  0  0
   -8.1645    0.1432  -22.4752 O   0  0  0  0  0  0  0  0  0  0  0  0
  -10.0343   -0.3248  -23.6485 N   0  0  0  0  0  0  0  0  0  0  0  0
  -10.7132   -1.5304  -24.2279 C   0  0  0  0  0  0  0  0  0  0  0  0
   -9.8739   -2.7324  -23.9103 C   0  0  0  0  0  0  0  0  0  0  0  0
   -7.5367   -1.6616  -22.3718 C   0  0  0  0  0  0  0  0  0  0  0  0
   -7.5004   -0.1815  -22.1311 C   0  0  0  0  0  0  0  0  0  0  0  0
   -6.3609    0.4264  -21.3683 C   0  0  0  0  0  0  0  0  0  0  0  0
   -6.3245    1.9066  -21.1275 Cl  0  0  0  0  0  0  0  0  0  0  0  0
   -5.2578   -0.4457  -20.8461 C   0  0  0  0  0  0  0  0  0  0  0  0
   -5.2942   -1.9258  -21.0868 C   0  0  0  0  0  0  0  0  0  0  0  0
   -6.4337   -2.5337  -21.8497 C   0  0  0  0  0  0  0  0  0  0  0  0
   -6.4701   -4.0139  -22.0904 C   0  0  0  0  0  0  0  0  0  0  0  0
   -5.3670   -4.8860  -21.5683 O   0  0  0  0  0  0  0  0  0  0  0  0
  -10.5276    1.0893  -23.7303 C   0  0  0  0  0  0  0  0  0  0  0  0
  -11.6523    1.5436  -22.8478 C   0  0  0  0  0  0  0  0  0  0  0  0
  -12.1457    2.9578  -22.9296 N   0  0  0  0  0  0  0  0  0  0  0  0
  -11.5143    3.9177  -23.8940 C   0  0  0  0  0  0  0  0  0  0  0  0
  -10.3897    3.4634  -24.7765 C   0  0  0  0  0  0  0  0  0  0  0  0
   -9.7583    4.4234  -25.7408 C   0  0  0  0  0  0  0  0  0  0  0  0
   -8.6337    3.9691  -26.6233 C   0  0  0  0  0  0  0  0  0  0  0  0
   -8.1403    2.5549  -26.5415 C   0  0  0  0  0  0  0  0  0  0  0  0
   -8.7716    1.5950  -25.5771 C   0  0  0  0  0  0  0  0  0  0  0  0
   -9.8963    2.0493  -24.6946 C   0  0  0  0  0  0  0  0  0  0  0  0
   -7.6459   -6.1020  -23.0940 C   0  0  0  0  0  0  0  0  0  0  0  0
   -4.4986   -7.8970  -24.7134 C   0  0  0  0  0  0  0  0  0  0  0  0
   -5.4094   -7.2804  -23.6934 N   0  0  0  0  0  0  0  0  0  0  0  0
   -6.7351   -6.7186  -24.1139 C   0  0  0  0  0  0  0  0  0  0  0  0
   -7.1501   -6.7734  -25.5544 O   0  0  0  0  0  0  0  0  0  0  0  0
   -5.1371   -7.2444  -22.7480 H   0  0  0  0  0  0  0  0  0  0  0  0
  -10.1787   -4.1484  -24.3000 C   0  0  0  0  0  0  0  0  0  0  0  0
  -10.0028   -4.5892  -25.7229 C   0  0  0  0  0  0  0  0  0  0  0  0
   -9.5269   -3.7328  -26.8588 N   0  0  0  0  0  0  0  0  0  0  0  0
   -9.5018   -4.5780  -28.0977 N   0  0  0  0  0  0  0  0  0  0  0  0
   -9.9622   -5.9568  -27.7275 N   0  0  0  0  0  0  0  0  0  0  0  0
  -10.2718   -5.9637  -26.2599 N   0  0  0  0  0  0  0  0  0  0  0  0
 29 30  1  0  0  0
 30 31  1  0  0  0
 31 32  2  0  0  0
 31 28  1  0  0  0
 28  1  1  0  0  0
  1  2  1  0  0  0
  3  2  1  0  0  0
  3  4  1  0  0  0
  4  5  2  0  0  0
  4  6  1  0  0  0
  6 18  1  0  0  0
 18 19  2  0  0  0
 19 20  1  0  0  0
 20 21  2  0  0  0
 21 22  1  0  0  0
 22 23  2  0  0  0
 23 24  1  0  0  0
 24 25  2  0  0  0
 25 26  1  0  0  0
 26 27  2  0  0  0
  6  7  1  0  0  0
  7  8  1  0  0  0
  8 34  1  0  0  0
 34 35  1  0  0  0
 35 36  1  0  0  0
 36 37  2  0  0  0
 37 38  1  0  0  0
 38 39  1  0  0  0
  3  9  1  0  0  0
  9 10  2  0  0  0
 10 11  1  0  0  0
 11 12  1  0  0  0
 11 13  2  0  0  0
 13 14  1  0  0  0
 14 15  2  0  0  0
 15 16  1  0  0  0
 16 17  2  0  0  0
 16  1  1  0  0  0
  8  3  1  0  0  0
 39 35  2  0  0  0
 15  9  1  0  0  0
 27 18  1  0  0  0
 27 22  1  0  0  0
 30 33  1  0  0  0
M  CHG 1  38  -1
M  END
> <minimizedAffinity>
-7.81468

> <CNNscore>
0.2129269242

> <CNNaffinity>
6.4675612450

> <CNN_VS>
1.3771178722

> <CNNaffinity_variance>
0.1699506044

$$$$



 39 44  0  0  0  0  0  0  0  0999 V2000
   -9.6851   -2.1513  -23.5911 N   0  0  0  0  0  0  0  0  0  0  0  0
   -8.3173   -2.2352  -22.9812 C   0  0  0  0  0  0  0  0  0  0  0  0
   -7.5619   -0.9803  -22.6582 C   0  0  0  0  0  0  0  0  0  0  0  0
   -6.6910    0.1819  -22.2829 C   0  0  0  0  0  0  0  0  0  0  0  0
   -6.7015    1.3968  -22.3005 O   0  0  0  0  0  0  0  0  0  0  0  0
   -5.4157   -0.3606  -21.7092 N   0  0  0  0  0  0  0  0  0  0  0  0
   -5.4983   -1.8582  -21.7300 C   0  0  0  0  0  0  0  0  0  0  0  0
   -6.8247   -2.2412  -22.3165 C   0  0  0  0  0  0  0  0  0  0  0  0
   -8.1743    0.3587  -22.9452 C   0  0  0  0  0  0  0  0  0  0  0  0
   -7.4188    1.6136  -22.6222 C   0  0  0  0  0  0  0  0  0  0  0  0
   -8.0312    2.9525  -22.9091 C   0  0  0  0  0  0  0  0  0  0  0  0
   -7.2757    4.2075  -22.5862 Cl  0  0  0  0  0  0  0  0  0  0  0  0
   -9.3990    3.0364  -23.5191 C   0  0  0  0  0  0  0  0  0  0  0  0
  -10.1545    1.7814  -23.8420 C   0  0  0  0  0  0  0  0  0  0  0  0
   -9.5421    0.4426  -23.5551 C   0  0  0  0  0  0  0  0  0  0  0  0
  -10.2975   -0.8125  -23.8780 C   0  0  0  0  0  0  0  0  0  0  0  0
  -11.6654   -0.7286  -24.4880 O   0  0  0  0  0  0  0  0  0  0  0  0
   -4.2605    0.4518  -21.2036 C   0  0  0  0  0  0  0  0  0  0  0  0
   -4.2464    0.9321  -19.7826 C   0  0  0  0  0  0  0  0  0  0  0  0
   -3.0913    1.7445  -19.2769 N   0  0  0  0  0  0  0  0  0  0  0  0
   -1.9503    2.0765  -20.1923 C   0  0  0  0  0  0  0  0  0  0  0  0
   -1.9644    1.5962  -21.6132 C   0  0  0  0  0  0  0  0  0  0  0  0
   -0.8234    1.9284  -22.5286 C   0  0  0  0  0  0  0  0  0  0  0  0
   -0.8376    1.4480  -23.9495 C   0  0  0  0  0  0  0  0  0  0  0  0
   -1.9927    0.6356  -24.4552 C   0  0  0  0  0  0  0  0  0  0  0  0
   -3.1337    0.3035  -23.5399 C   0  0  0  0  0  0  0  0  0  0  0  0
   -3.1196    0.7838  -22.1189 C   0  0  0  0  0  0  0  0  0  0  0  0
  -10.4406   -3.4064  -23.9140 C   0  0  0  0  0  0  0  0  0  0  0  0
  -10.4447   -6.1583  -26.7735 C   0  0  0  0  0  0  0  0  0  0  0  0
  -10.6089   -5.5084  -25.4317 N   0  0  0  0  0  0  0  0  0  0  0  0
  -10.2763   -4.0563  -25.2559 C   0  0  0  0  0  0  0  0  0  0  0  0
   -9.7794   -3.2542  -26.4220 O   0  0  0  0  0  0  0  0  0  0  0  0
  -10.9351   -6.0348  -24.6664 H   0  0  0  0  0  0  0  0  0  0  0  0
   -7.3259   -3.6395  -22.5247 C   0  0  0  0  0  0  0  0  0  0  0  0
   -6.3525   -4.7715  -22.6693 C   0  0  0  0  0  0  0  0  0  0  0  0
   -6.0313   -5.5012  -23.9399 N   0  0  0  0  0  0  0  0  0  0  0  0
   -5.0096   -6.5532  -23.6247 N   0  0  0  0  0  0  0  0  0  0  0  0
   -4.6993   -6.4736  -22.1593 N   0  0  0  0  0  0  0  0  0  0  0  0
   -5.5292   -5.3725  -21.5689 N   0  0  0  0  0  0  0  0  0  0  0  0
 29 30  1  0  0  0
 30 31  1  0  0  0
 31 32  2  0  0  0
 31 28  1  0  0  0
 28  1  1  0  0  0
  1  2  1  0  0  0
  3  2  1  0  0  0
  3  4  1  0  0  0
  4  5  2  0  0  0
  4  6  1  0  0  0
  6 18  1  0  0  0
 18 19  2  0  0  0
 19 20  1  0  0  0
 20 21  2  0  0  0
 21 22  1  0  0  0
 22 23  2  0  0  0
 23 24  1  0  0  0
 24 25  2  0  0  0
 25 26  1  0  0  0
 26 27  2  0  0  0
  6  7  1  0  0  0
  7  8  1  0  0  0
  8 34  1  0  0  0
 34 35  1  0  0  0
 35 36  1  0  0  0
 36 37  2  0  0  0
 37 38  1  0  0  0
 38 39  1  0  0  0
  3  9  1  0  0  0
  9 10  2  0  0  0
 10 11  1  0  0  0
 11 12  1  0  0  0
 11 13  2  0  0  0
 13 14  1  0  0  0
 14 15  2  0  0  0
 15 16  1  0  0  0
 16 17  2  0  0  0
 16  1  1  0  0  0
  8  3  1  0  0  0
 39 35  2  0  0  0
 15  9  1  0  0  0
 27 18  1  0  0  0
 27 22  1  0  0  0
 30 33  1  0  0  0
M  CHG 1  38  -1
M  END
> <minimizedAffinity>
-8.09840

> <CNNscore>
0.1989135295

> <CNNaffinity>
6.4448523521

> <CNN_VS>
1.2819683552

> <CNNaffinity_variance>
0.1325944364

$$$$



 39 44  0  0  0  0  0  0  0  0999 V2000
   -2.9949    0.3376  -23.9991 N   0  0  0  0  0  0  0  0  0  0  0  0
   -4.2275   -0.0154  -23.2206 C   0  0  0  0  0  0  0  0  0  0  0  0
   -5.4875   -0.3928  -23.9416 C   0  0  0  0  0  0  0  0  0  0  0  0
   -6.8134   -0.7880  -24.5211 C   0  0  0  0  0  0  0  0  0  0  0  0
   -7.3444   -0.9556  -25.6011 O   0  0  0  0  0  0  0  0  0  0  0  0
   -7.7560   -1.0521  -23.3846 N   0  0  0  0  0  0  0  0  0  0  0  0
   -7.0127   -0.8200  -22.1025 C   0  0  0  0  0  0  0  0  0  0  0  0
   -5.6107   -0.4126  -22.4468 C   0  0  0  0  0  0  0  0  0  0  0  0
   -5.5150   -0.4173  -25.4412 C   0  0  0  0  0  0  0  0  0  0  0  0
   -6.7750   -0.7947  -26.1622 C   0  0  0  0  0  0  0  0  0  0  0  0
   -6.8024   -0.8192  -27.6617 C   0  0  0  0  0  0  0  0  0  0  0  0
   -8.0625   -1.1966  -28.3828 Cl  0  0  0  0  0  0  0  0  0  0  0  0
   -5.5698   -0.4662  -28.4402 C   0  0  0  0  0  0  0  0  0  0  0  0
   -4.3098   -0.0887  -27.7192 C   0  0  0  0  0  0  0  0  0  0  0  0
   -4.2824   -0.0643  -26.2197 C   0  0  0  0  0  0  0  0  0  0  0  0
   -3.0223    0.3132  -25.4986 C   0  0  0  0  0  0  0  0  0  0  0  0
   -1.7897    0.6661  -26.2772 O   0  0  0  0  0  0  0  0  0  0  0  0
   -9.1901   -1.4740  -23.5083 C   0  0  0  0  0  0  0  0  0  0  0  0
   -9.5367   -2.9291  -23.6210 C   0  0  0  0  0  0  0  0  0  0  0  0
  -10.9708   -3.3511  -23.7447 N   0  0  0  0  0  0  0  0  0  0  0  0
  -12.0582   -2.3180  -23.7558 C   0  0  0  0  0  0  0  0  0  0  0  0
  -11.7116   -0.8629  -23.6432 C   0  0  0  0  0  0  0  0  0  0  0  0
  -12.7991    0.1702  -23.6542 C   0  0  0  0  0  0  0  0  0  0  0  0
  -12.4524    1.6253  -23.5416 C   0  0  0  0  0  0  0  0  0  0  0  0
  -11.0183    2.0472  -23.4178 C   0  0  0  0  0  0  0  0  0  0  0  0
   -9.9309    1.0141  -23.4067 C   0  0  0  0  0  0  0  0  0  0  0  0
  -10.2775   -0.4409  -23.5194 C   0  0  0  0  0  0  0  0  0  0  0  0
   -1.7349    0.7150  -23.2781 C   0  0  0  0  0  0  0  0  0  0  0  0
   -2.3513    3.8973  -20.9883 C   0  0  0  0  0  0  0  0  0  0  0  0
   -2.2869    3.0125  -22.1978 N   0  0  0  0  0  0  0  0  0  0  0  0
   -1.7992    1.5999  -22.0686 C   0  0  0  0  0  0  0  0  0  0  0  0
   -1.3759    1.0721  -20.7297 O   0  0  0  0  0  0  0  0  0  0  0  0
   -2.5647    3.3589  -23.0765 H   0  0  0  0  0  0  0  0  0  0  0  0
   -4.5229   -0.0829  -21.4680 C   0  0  0  0  0  0  0  0  0  0  0  0
   -4.8109   -0.0901  -19.9960 C   0  0  0  0  0  0  0  0  0  0  0  0
   -5.3552   -1.2458  -19.2098 N   0  0  0  0  0  0  0  0  0  0  0  0
   -5.4859   -0.8129  -17.7796 N   0  0  0  0  0  0  0  0  0  0  0  0
   -5.0223    0.6103  -17.6819 N   0  0  0  0  0  0  0  0  0  0  0  0
   -4.6051    1.0570  -19.0517 N   0  0  0  0  0  0  0  0  0  0  0  0
 29 30  1  0  0  0
 30 31  1  0  0  0
 31 32  2  0  0  0
 31 28  1  0  0  0
 28  1  1  0  0  0
  1  2  1  0  0  0
  3  2  1  0  0  0
  3  4  1  0  0  0
  4  5  2  0  0  0
  4  6  1  0  0  0
  6 18  1  0  0  0
 18 19  2  0  0  0
 19 20  1  0  0  0
 20 21  2  0  0  0
 21 22  1  0  0  0
 22 23  2  0  0  0
 23 24  1  0  0  0
 24 25  2  0  0  0
 25 26  1  0  0  0
 26 27  2  0  0  0
  6  7  1  0  0  0
  7  8  1  0  0  0
  8 34  1  0  0  0
 34 35  1  0  0  0
 35 36  1  0  0  0
 36 37  2  0  0  0
 37 38  1  0  0  0
 38 39  1  0  0  0
  3  9  1  0  0  0
  9 10  2  0  0  0
 10 11  1  0  0  0
 11 12  1  0  0  0
 11 13  2  0  0  0
 13 14  1  0  0  0
 14 15  2  0  0  0
 15 16  1  0  0  0
 16 17  2  0  0  0
 16  1  1  0  0  0
  8  3  1  0  0  0
 39 35  2  0  0  0
 15  9  1  0  0  0
 27 18  1  0  0  0
 27 22  1  0  0  0
 30 33  1  0  0  0
M  CHG 1  38  -1
M  END
> <minimizedAffinity>
-7.34620

> <CNNscore>
0.1976537555

> <CNNaffinity>
6.4056839943

> <CNN_VS>
1.2661074400

> <CNNaffinity_variance>
0.0626456141

$$$$



 39 44  0  0  0  0  0  0  0  0999 V2000
   -7.2932   -4.2153  -22.5831 N   0  0  0  0  0  0  0  0  0  0  0  0
   -8.2355   -3.2974  -23.3039 C   0  0  0  0  0  0  0  0  0  0  0  0
   -8.0462   -1.8118  -23.2202 C   0  0  0  0  0  0  0  0  0  0  0  0
   -7.9831   -0.3131  -23.2289 C   0  0  0  0  0  0  0  0  0  0  0  0
   -7.3137    0.5930  -22.7739 O   0  0  0  0  0  0  0  0  0  0  0  0
   -9.1149    0.1936  -24.0729 N   0  0  0  0  0  0  0  0  0  0  0  0
   -9.8776   -0.9919  -24.5857 C   0  0  0  0  0  0  0  0  0  0  0  0
   -9.2171   -2.2313  -24.0587 C   0  0  0  0  0  0  0  0  0  0  0  0
   -6.9146   -1.2440  -22.4156 C   0  0  0  0  0  0  0  0  0  0  0  0
   -6.7253    0.2416  -22.3319 C   0  0  0  0  0  0  0  0  0  0  0  0
   -5.5937    0.8093  -21.5274 C   0  0  0  0  0  0  0  0  0  0  0  0
   -5.4044    2.2950  -21.4437 Cl  0  0  0  0  0  0  0  0  0  0  0  0
   -4.6515   -0.1086  -20.8067 C   0  0  0  0  0  0  0  0  0  0  0  0
   -4.8408   -1.5943  -20.8904 C   0  0  0  0  0  0  0  0  0  0  0  0
   -5.9723   -2.1619  -21.6949 C   0  0  0  0  0  0  0  0  0  0  0  0
   -6.1617   -3.6476  -21.7786 C   0  0  0  0  0  0  0  0  0  0  0  0
   -5.2194   -4.5656  -21.0578 O   0  0  0  0  0  0  0  0  0  0  0  0
   -9.4290    1.6330  -24.3546 C   0  0  0  0  0  0  0  0  0  0  0  0
   -8.3717    2.5347  -24.9195 C   0  0  0  0  0  0  0  0  0  0  0  0
   -8.6857    3.9742  -25.2011 N   0  0  0  0  0  0  0  0  0  0  0  0
  -10.0570    4.5119  -24.9179 C   0  0  0  0  0  0  0  0  0  0  0  0
  -11.1143    3.6102  -24.3530 C   0  0  0  0  0  0  0  0  0  0  0  0
  -12.4857    4.1481  -24.0698 C   0  0  0  0  0  0  0  0  0  0  0  0
  -13.5430    3.2463  -23.5049 C   0  0  0  0  0  0  0  0  0  0  0  0
  -13.2289    1.8068  -23.2232 C   0  0  0  0  0  0  0  0  0  0  0  0
  -11.8576    1.2691  -23.5065 C   0  0  0  0  0  0  0  0  0  0  0  0
  -10.8003    2.1708  -24.0714 C   0  0  0  0  0  0  0  0  0  0  0  0
   -7.4826   -5.7010  -22.6669 C   0  0  0  0  0  0  0  0  0  0  0  0
   -4.5468   -7.7509  -24.3783 C   0  0  0  0  0  0  0  0  0  0  0  0
   -5.3166   -6.9526  -23.3683 N   0  0  0  0  0  0  0  0  0  0  0  0
   -6.7128   -6.4994  -23.6768 C   0  0  0  0  0  0  0  0  0  0  0  0
   -7.3393   -6.8446  -24.9953 O   0  0  0  0  0  0  0  0  0  0  0  0
   -4.9054   -6.7260  -22.5030 H   0  0  0  0  0  0  0  0  0  0  0  0
   -9.6512   -3.6424  -24.3237 C   0  0  0  0  0  0  0  0  0  0  0  0
   -9.6669   -4.1713  -25.7272 C   0  0  0  0  0  0  0  0  0  0  0  0
   -9.1913   -3.4429  -26.9492 N   0  0  0  0  0  0  0  0  0  0  0  0
   -9.3913   -4.3428  -28.1325 N   0  0  0  0  0  0  0  0  0  0  0  0
   -9.9905   -5.6274  -27.6418 N   0  0  0  0  0  0  0  0  0  0  0  0
  -10.1608   -5.5213  -26.1553 N   0  0  0  0  0  0  0  0  0  0  0  0
 29 30  1  0  0  0
 30 31  1  0  0  0
 31 32  2  0  0  0
 31 28  1  0  0  0
 28  1  1  0  0  0
  1  2  1  0  0  0
  3  2  1  0  0  0
  3  4  1  0  0  0
  4  5  2  0  0  0
  4  6  1  0  0  0
  6 18  1  0  0  0
 18 19  2  0  0  0
 19 20  1  0  0  0
 20 21  2  0  0  0
 21 22  1  0  0  0
 22 23  2  0  0  0
 23 24  1  0  0  0
 24 25  2  0  0  0
 25 26  1  0  0  0
 26 27  2  0  0  0
  6  7  1  0  0  0
  7  8  1  0  0  0
  8 34  1  0  0  0
 34 35  1  0  0  0
 35 36  1  0  0  0
 36 37  2  0  0  0
 37 38  1  0  0  0
 38 39  1  0  0  0
  3  9  1  0  0  0
  9 10  2  0  0  0
 10 11  1  0  0  0
 11 12  1  0  0  0
 11 13  2  0  0  0
 13 14  1  0  0  0
 14 15  2  0  0  0
 15 16  1  0  0  0
 16 17  2  0  0  0
 16  1  1  0  0  0
  8  3  1  0  0  0
 39 35  2  0  0  0
 15  9  1  0  0  0
 27 18  1  0  0  0
 27 22  1  0  0  0
 30 33  1  0  0  0
M  CHG 1  38  -1
M  END
> <minimizedAffinity>
-8.22675

> <CNNscore>
0.1958080530

> <CNNaffinity>
6.4221787453

> <CNN_VS>
1.2575143576

> <CNNaffinity_variance>
0.2543199062

$$$$



 39 44  0  0  0  0  0  0  0  0999 V2000
   -2.8991    1.3659  -21.9580 N   0  0  0  0  0  0  0  0  0  0  0  0
   -4.2161    0.6707  -22.1373 C   0  0  0  0  0  0  0  0  0  0  0  0
   -4.4796   -0.1279  -23.3794 C   0  0  0  0  0  0  0  0  0  0  0  0
   -4.8847   -0.9578  -24.5614 C   0  0  0  0  0  0  0  0  0  0  0  0
   -4.4418   -1.3394  -25.6265 O   0  0  0  0  0  0  0  0  0  0  0  0
   -6.2783   -1.4581  -24.3208 N   0  0  0  0  0  0  0  0  0  0  0  0
   -6.7344   -0.9373  -22.9901 C   0  0  0  0  0  0  0  0  0  0  0  0
   -5.6228   -0.1152  -22.4083 C   0  0  0  0  0  0  0  0  0  0  0  0
   -3.4261   -0.2313  -24.4422 C   0  0  0  0  0  0  0  0  0  0  0  0
   -3.6896   -1.0299  -25.6843 C   0  0  0  0  0  0  0  0  0  0  0  0
   -2.6360   -1.1333  -26.7469 C   0  0  0  0  0  0  0  0  0  0  0  0
   -2.8995   -1.9319  -27.9891 Cl  0  0  0  0  0  0  0  0  0  0  0  0
   -1.3190   -0.4381  -26.5676 C   0  0  0  0  0  0  0  0  0  0  0  0
   -1.0555    0.3605  -25.3255 C   0  0  0  0  0  0  0  0  0  0  0  0
   -2.1090    0.4639  -24.2628 C   0  0  0  0  0  0  0  0  0  0  0  0
   -1.8456    1.2625  -23.0206 C   0  0  0  0  0  0  0  0  0  0  0  0
   -0.5286    1.9577  -22.8412 O   0  0  0  0  0  0  0  0  0  0  0  0
   -7.0756   -2.3266  -25.2481 C   0  0  0  0  0  0  0  0  0  0  0  0
   -7.6175   -1.7594  -26.5267 C   0  0  0  0  0  0  0  0  0  0  0  0
   -8.4149   -2.6279  -27.4540 N   0  0  0  0  0  0  0  0  0  0  0  0
   -8.6703   -4.0636  -27.1027 C   0  0  0  0  0  0  0  0  0  0  0  0
   -8.1284   -4.6308  -25.8242 C   0  0  0  0  0  0  0  0  0  0  0  0
   -8.3839   -6.0666  -25.4729 C   0  0  0  0  0  0  0  0  0  0  0  0
   -7.8420   -6.6338  -24.1944 C   0  0  0  0  0  0  0  0  0  0  0  0
   -7.0447   -5.7653  -23.2671 C   0  0  0  0  0  0  0  0  0  0  0  0
   -6.7892   -4.3295  -23.6183 C   0  0  0  0  0  0  0  0  0  0  0  0
   -7.3311   -3.7623  -24.8969 C   0  0  0  0  0  0  0  0  0  0  0  0
   -2.6356    2.1645  -20.7158 C   0  0  0  0  0  0  0  0  0  0  0  0
   -2.8791    5.9634  -21.8377 C   0  0  0  0  0  0  0  0  0  0  0  0
   -3.1630    4.4939  -21.7383 N   0  0  0  0  0  0  0  0  0  0  0  0
   -2.3517    3.6340  -20.8151 C   0  0  0  0  0  0  0  0  0  0  0  0
   -1.2565    4.2437  -19.9912 O   0  0  0  0  0  0  0  0  0  0  0  0
   -3.8819    4.0938  -22.2791 H   0  0  0  0  0  0  0  0  0  0  0  0
   -5.6496    0.5949  -21.0873 C   0  0  0  0  0  0  0  0  0  0  0  0
   -5.6885   -0.1942  -19.8123 C   0  0  0  0  0  0  0  0  0  0  0  0
   -6.2635   -1.5693  -19.6437 N   0  0  0  0  0  0  0  0  0  0  0  0
   -6.0896   -1.9717  -18.2092 N   0  0  0  0  0  0  0  0  0  0  0  0
   -5.4071   -0.8453  -17.4912 N   0  0  0  0  0  0  0  0  0  0  0  0
   -5.1592    0.2532  -18.4820 N   0  0  0  0  0  0  0  0  0  0  0  0
 29 30  1  0  0  0
 30 31  1  0  0  0
 31 32  2  0  0  0
 31 28  1  0  0  0
 28  1  1  0  0  0
  1  2  1  0  0  0
  3  2  1  0  0  0
  3  4  1  0  0  0
  4  5  2  0  0  0
  4  6  1  0  0  0
  6 18  1  0  0  0
 18 19  2  0  0  0
 19 20  1  0  0  0
 20 21  2  0  0  0
 21 22  1  0  0  0
 22 23  2  0  0  0
 23 24  1  0  0  0
 24 25  2  0  0  0
 25 26  1  0  0  0
 26 27  2  0  0  0
  6  7  1  0  0  0
  7  8  1  0  0  0
  8 34  1  0  0  0
 34 35  1  0  0  0
 35 36  1  0  0  0
 36 37  2  0  0  0
 37 38  1  0  0  0
 38 39  1  0  0  0
  3  9  1  0  0  0
  9 10  2  0  0  0
 10 11  1  0  0  0
 11 12  1  0  0  0
 11 13  2  0  0  0
 13 14  1  0  0  0
 14 15  2  0  0  0
 15 16  1  0  0  0
 16 17  2  0  0  0
 16  1  1  0  0  0
  8  3  1  0  0  0
 39 35  2  0  0  0
 15  9  1  0  0  0
 27 18  1  0  0  0
 27 22  1  0  0  0
 30 33  1  0  0  0
M  CHG 1  38  -1
M  END
> <minimizedAffinity>
-7.97029

> <CNNscore>
0.1926570386

> <CNNaffinity>
6.2588324547

> <CNN_VS>
1.2058081627

> <CNNaffinity_variance>
0.0807489082

$$$$
