


 37 42  0  0  0  0  0  0  0  0999 V2000
   -8.2758   -2.6279  -22.7934 C   0  0  0  0  0  0  0  0  0  0  0  0
   -7.9853   -1.4908  -21.8592 C   0  0  0  0  0  0  0  0  0  0  0  0
   -6.7392   -1.8260  -21.0944 N   0  0  0  0  0  0  0  0  0  0  0  0
   -6.2597   -3.1703  -21.5558 C   0  0  0  0  0  0  0  0  0  0  0  0
   -5.0439   -3.8923  -21.0551 O   0  0  0  0  0  0  0  0  0  0  0  0
   -7.2093   -3.6659  -22.6059 C   0  0  0  0  0  0  0  0  0  0  0  0
   -6.0805   -4.6085  -22.3103 C   0  0  0  0  0  0  0  0  0  0  0  0
   -5.9811   -5.9130  -23.0440 N   0  0  0  0  0  0  0  0  0  0  0  0
   -7.0105   -6.2750  -24.0732 C   0  0  0  0  0  0  0  0  0  0  0  0
   -6.9111   -7.5795  -24.8069 O   0  0  0  0  0  0  0  0  0  0  0  0
   -8.1394   -5.3324  -24.3688 C   0  0  0  0  0  0  0  0  0  0  0  0
   -9.1687   -5.6943  -25.3980 C   0  0  0  0  0  0  0  0  0  0  0  0
  -10.2975   -4.7518  -25.6936 C   0  0  0  0  0  0  0  0  0  0  0  0
  -10.3969   -3.4472  -24.9599 C   0  0  0  0  0  0  0  0  0  0  0  0
  -11.5257   -2.5046  -25.2554 Cl  0  0  0  0  0  0  0  0  0  0  0  0
   -9.3675   -3.0853  -23.9306 C   0  0  0  0  0  0  0  0  0  0  0  0
   -8.2388   -4.0279  -23.6351 C   0  0  0  0  0  0  0  0  0  0  0  0
   -6.0872   -0.9677  -20.0512 C   0  0  0  0  0  0  0  0  0  0  0  0
   -6.6180   -0.9588  -18.6484 C   0  0  0  0  0  0  0  0  0  0  0  0
   -5.9660   -0.1005  -17.6052 N   0  0  0  0  0  0  0  0  0  0  0  0
   -4.7832    0.7489  -17.9650 C   0  0  0  0  0  0  0  0  0  0  0  0
   -4.2524    0.7400  -19.3679 C   0  0  0  0  0  0  0  0  0  0  0  0
   -3.0695    1.5894  -19.7277 C   0  0  0  0  0  0  0  0  0  0  0  0
   -2.5388    1.5805  -21.1307 C   0  0  0  0  0  0  0  0  0  0  0  0
   -3.1908    0.7221  -22.1737 C   0  0  0  0  0  0  0  0  0  0  0  0
   -4.3736   -0.1272  -21.8139 C   0  0  0  0  0  0  0  0  0  0  0  0
   -4.9044   -0.1183  -20.4111 C   0  0  0  0  0  0  0  0  0  0  0  0
   -9.4301   -2.7122  -23.7475 C   0  0  0  0  0  0  0  0  0  0  0  0
  -10.1309   -0.2108  -23.7018 C   0  0  0  0  0  0  0  0  0  0  0  0
   -9.9022   -1.4820  -24.4643 O   0  0  0  0  0  0  0  0  0  0  0  0
   -4.8523   -6.8556  -22.7485 C   0  0  0  0  0  0  0  0  0  0  0  0
   -3.7226   -7.0022  -23.7242 C   0  0  0  0  0  0  0  0  0  0  0  0
   -3.5843   -6.2747  -25.0287 N   0  0  0  0  0  0  0  0  0  0  0  0
   -2.3090   -6.7249  -25.6775 C   0  0  0  0  0  0  0  0  0  0  0  0
   -1.6591   -7.7306  -24.7741 C   0  0  0  0  0  0  0  0  0  0  0  0
   -2.5328   -7.9020  -23.5669 N   0  0  0  0  0  0  0  0  0  0  0  0
   -2.3563   -8.5001  -22.8051 H   0  0  0  0  0  0  0  0  0  0  0  0
 29 30  1  0  0  0
 30 28  1  0  0  0
  1 28  1  0  0  0
  1  2  1  0  0  0
  2  3  1  0  0  0
  3 18  1  0  0  0
 18 19  2  0  0  0
 19 20  1  0  0  0
 20 21  2  0  0  0
 21 22  1  0  0  0
 22 23  2  0  0  0
 23 24  1  0  0  0
 24 25  2  0  0  0
 25 26  1  0  0  0
 26 27  2  0  0  0
  3  4  1  0  0  0
  4  5  2  0  0  0
  4  6  1  0  0  0
  6  7  1  0  0  0
  7  8  1  0  0  0
  8 31  1  0  0  0
 31 32  1  0  0  0
 32 33  2  0  0  0
 33 34  1  0  0  0
 34 35  2  0  0  0
 35 36  1  0  0  0
  8  9  1  0  0  0
  9 10  2  0  0  0
  9 11  1  0  0  0
 11 12  2  0  0  0
 12 13  1  0  0  0
 13 14  2  0  0  0
 14 15  1  0  0  0
 14 16  1  0  0  0
 16 17  2  0  0  0
  6  1  1  0  0  0
 36 32  1  0  0  0
 17 11  1  0  0  0
 27 18  1  0  0  0
 17  6  1  0  0  0
 27 22  1  0  0  0
 36 37  1  0  0  0
M  END
> <minimizedAffinity>
-7.46615

> <CNNscore>
0.5178413391

> <CNNaffinity>
6.5147123337

> <CNN_VS>
3.3735873699

> <CNNaffinity_variance>
0.1498369873

$$$$



 37 42  0  0  0  0  0  0  0  0999 V2000
  -10.3636   -0.5884  -23.9175 C   0  0  0  0  0  0  0  0  0  0  0  0
  -11.5768    0.2936  -23.9002 C   0  0  0  0  0  0  0  0  0  0  0  0
  -11.1412    1.6732  -23.5041 N   0  0  0  0  0  0  0  0  0  0  0  0
   -9.6588    1.6438  -23.2766 C   0  0  0  0  0  0  0  0  0  0  0  0
   -8.8067    2.8079  -22.8657 O   0  0  0  0  0  0  0  0  0  0  0  0
   -9.1782    0.2461  -23.5321 C   0  0  0  0  0  0  0  0  0  0  0  0
   -8.0925    1.2013  -23.1338 C   0  0  0  0  0  0  0  0  0  0  0  0
   -6.6753    0.7221  -23.0233 N   0  0  0  0  0  0  0  0  0  0  0  0
   -6.3440   -0.7122  -23.3110 C   0  0  0  0  0  0  0  0  0  0  0  0
   -4.9269   -1.1914  -23.2005 O   0  0  0  0  0  0  0  0  0  0  0  0
   -7.4298   -1.6675  -23.7094 C   0  0  0  0  0  0  0  0  0  0  0  0
   -7.0984   -3.1018  -23.9971 C   0  0  0  0  0  0  0  0  0  0  0  0
   -8.1842   -4.0570  -24.3954 C   0  0  0  0  0  0  0  0  0  0  0  0
   -9.6013   -3.5779  -24.5059 C   0  0  0  0  0  0  0  0  0  0  0  0
  -10.6871   -4.5331  -24.9042 Cl  0  0  0  0  0  0  0  0  0  0  0  0
   -9.9327   -2.1435  -24.2182 C   0  0  0  0  0  0  0  0  0  0  0  0
   -8.8469   -1.1883  -23.8199 C   0  0  0  0  0  0  0  0  0  0  0  0
  -12.0316    2.8718  -23.3607 C   0  0  0  0  0  0  0  0  0  0  0  0
  -13.0265    2.9372  -22.2402 C   0  0  0  0  0  0  0  0  0  0  0  0
  -13.9169    4.1358  -22.0968 N   0  0  0  0  0  0  0  0  0  0  0  0
  -13.8123    5.2689  -23.0740 C   0  0  0  0  0  0  0  0  0  0  0  0
  -12.8173    5.2035  -24.1946 C   0  0  0  0  0  0  0  0  0  0  0  0
  -12.7128    6.3368  -25.1718 C   0  0  0  0  0  0  0  0  0  0  0  0
  -11.7178    6.2713  -26.2924 C   0  0  0  0  0  0  0  0  0  0  0  0
  -10.8274    5.0728  -26.4357 C   0  0  0  0  0  0  0  0  0  0  0  0
  -10.9320    3.9396  -25.4585 C   0  0  0  0  0  0  0  0  0  0  0  0
  -11.9269    4.0050  -24.3380 C   0  0  0  0  0  0  0  0  0  0  0  0
  -10.3400   -2.0486  -24.2601 C   0  0  0  0  0  0  0  0  0  0  0  0
  -12.1691   -2.5131  -22.4745 C   0  0  0  0  0  0  0  0  0  0  0  0
  -11.3152   -2.9868  -23.6130 O   0  0  0  0  0  0  0  0  0  0  0  0
   -5.5896    1.6774  -22.6250 C   0  0  0  0  0  0  0  0  0  0  0  0
   -4.8526    1.4790  -21.3337 C   0  0  0  0  0  0  0  0  0  0  0  0
   -3.5249    2.0779  -20.9753 N   0  0  0  0  0  0  0  0  0  0  0  0
   -3.1656    1.6160  -19.5942 C   0  0  0  0  0  0  0  0  0  0  0  0
   -4.2713    0.7315  -19.0990 C   0  0  0  0  0  0  0  0  0  0  0  0
   -5.3139    0.6469  -20.1741 N   0  0  0  0  0  0  0  0  0  0  0  0
   -6.1535    0.1350  -20.1269 H   0  0  0  0  0  0  0  0  0  0  0  0
 29 30  1  0  0  0
 30 28  1  0  0  0
  1 28  1  0  0  0
  1  2  1  0  0  0
  2  3  1  0  0  0
  3 18  1  0  0  0
 18 19  2  0  0  0
 19 20  1  0  0  0
 20 21  2  0  0  0
 21 22  1  0  0  0
 22 23  2  0  0  0
 23 24  1  0  0  0
 24 25  2  0  0  0
 25 26  1  0  0  0
 26 27  2  0  0  0
  3  4  1  0  0  0
  4  5  2  0  0  0
  4  6  1  0  0  0
  6  7  1  0  0  0
  7  8  1  0  0  0
  8 31  1  0  0  0
 31 32  1  0  0  0
 32 33  2  0  0  0
 33 34  1  0  0  0
 34 35  2  0  0  0
 35 36  1  0  0  0
  8  9  1  0  0  0
  9 10  2  0  0  0
  9 11  1  0  0  0
 11 12  2  0  0  0
 12 13  1  0  0  0
 13 14  2  0  0  0
 14 15  1  0  0  0
 14 16  1  0  0  0
 16 17  2  0  0  0
  6  1  1  0  0  0
 36 32  1  0  0  0
 17 11  1  0  0  0
 27 18  1  0  0  0
 17  6  1  0  0  0
 27 22  1  0  0  0
 36 37  1  0  0  0
M  END
> <minimizedAffinity>
-7.47351

> <CNNscore>
0.4558926225

> <CNNaffinity>
6.4890875816

> <CNN_VS>
2.9583270550

> <CNNaffinity_variance>
0.0273537394

$$$$



 37 42  0  0  0  0  0  0  0  0999 V2000
   -8.3878   -0.0779  -22.0095 C   0  0  0  0  0  0  0  0  0  0  0  0
   -9.1760    1.1943  -22.1105 C   0  0  0  0  0  0  0  0  0  0  0  0
  -10.3302    0.9520  -23.0374 N   0  0  0  0  0  0  0  0  0  0  0  0
  -10.2553   -0.4699  -23.5092 C   0  0  0  0  0  0  0  0  0  0  0  0
  -11.2128   -1.1380  -24.4509 O   0  0  0  0  0  0  0  0  0  0  0  0
   -9.0548   -1.1065  -22.8738 C   0  0  0  0  0  0  0  0  0  0  0  0
   -9.8275   -2.0244  -23.7739 C   0  0  0  0  0  0  0  0  0  0  0  0
   -9.3738   -3.4408  -23.9688 N   0  0  0  0  0  0  0  0  0  0  0  0
   -8.1473   -3.9392  -23.2636 C   0  0  0  0  0  0  0  0  0  0  0  0
   -7.6936   -5.3556  -23.4584 O   0  0  0  0  0  0  0  0  0  0  0  0
   -7.3746   -3.0212  -22.3634 C   0  0  0  0  0  0  0  0  0  0  0  0
   -6.1482   -3.5196  -21.6581 C   0  0  0  0  0  0  0  0  0  0  0  0
   -5.3755   -2.6016  -20.7580 C   0  0  0  0  0  0  0  0  0  0  0  0
   -5.8292   -1.1852  -20.5632 C   0  0  0  0  0  0  0  0  0  0  0  0
   -5.0565   -0.2672  -19.6630 Cl  0  0  0  0  0  0  0  0  0  0  0  0
   -7.0557   -0.6869  -21.2684 C   0  0  0  0  0  0  0  0  0  0  0  0
   -7.8283   -1.6048  -22.1685 C   0  0  0  0  0  0  0  0  0  0  0  0
  -11.3758    1.9555  -23.4246 C   0  0  0  0  0  0  0  0  0  0  0  0
  -12.7031    1.9630  -22.7262 C   0  0  0  0  0  0  0  0  0  0  0  0
  -13.7487    2.9665  -23.1133 N   0  0  0  0  0  0  0  0  0  0  0  0
  -13.4668    3.9624  -24.1990 C   0  0  0  0  0  0  0  0  0  0  0  0
  -12.1393    3.9548  -24.8975 C   0  0  0  0  0  0  0  0  0  0  0  0
  -11.8574    4.9508  -25.9832 C   0  0  0  0  0  0  0  0  0  0  0  0
  -10.5300    4.9431  -26.6817 C   0  0  0  0  0  0  0  0  0  0  0  0
   -9.4845    3.9397  -26.2944 C   0  0  0  0  0  0  0  0  0  0  0  0
   -9.7664    2.9438  -25.2088 C   0  0  0  0  0  0  0  0  0  0  0  0
  -11.0938    2.9514  -24.5103 C   0  0  0  0  0  0  0  0  0  0  0  0
   -7.1499   -0.2852  -21.1882 C   0  0  0  0  0  0  0  0  0  0  0  0
   -6.0611    1.9102  -22.0512 C   0  0  0  0  0  0  0  0  0  0  0  0
   -5.9264    0.5410  -21.4537 O   0  0  0  0  0  0  0  0  0  0  0  0
  -10.1465   -4.3588  -24.8690 C   0  0  0  0  0  0  0  0  0  0  0  0
   -9.4747   -4.9891  -26.0527 C   0  0  0  0  0  0  0  0  0  0  0  0
  -10.1255   -5.8913  -27.0589 N   0  0  0  0  0  0  0  0  0  0  0  0
   -9.0872   -6.2877  -28.0662 C   0  0  0  0  0  0  0  0  0  0  0  0
   -7.7945   -5.6303  -27.6826 C   0  0  0  0  0  0  0  0  0  0  0  0
   -8.0340   -4.8278  -26.4382 N   0  0  0  0  0  0  0  0  0  0  0  0
   -7.3635   -4.2897  -25.9587 H   0  0  0  0  0  0  0  0  0  0  0  0
 29 30  1  0  0  0
 30 28  1  0  0  0
  1 28  1  0  0  0
  1  2  1  0  0  0
  2  3  1  0  0  0
  3 18  1  0  0  0
 18 19  2  0  0  0
 19 20  1  0  0  0
 20 21  2  0  0  0
 21 22  1  0  0  0
 22 23  2  0  0  0
 23 24  1  0  0  0
 24 25  2  0  0  0
 25 26  1  0  0  0
 26 27  2  0  0  0
  3  4  1  0  0  0
  4  5  2  0  0  0
  4  6  1  0  0  0
  6  7  1  0  0  0
  7  8  1  0  0  0
  8 31  1  0  0  0
 31 32  1  0  0  0
 32 33  2  0  0  0
 33 34  1  0  0  0
 34 35  2  0  0  0
 35 36  1  0  0  0
  8  9  1  0  0  0
  9 10  2  0  0  0
  9 11  1  0  0  0
 11 12  2  0  0  0
 12 13  1  0  0  0
 13 14  2  0  0  0
 14 15  1  0  0  0
 14 16  1  0  0  0
 16 17  2  0  0  0
  6  1  1  0  0  0
 36 32  1  0  0  0
 17 11  1  0  0  0
 27 18  1  0  0  0
 17  6  1  0  0  0
 27 22  1  0  0  0
 36 37  1  0  0  0
M  END
> <minimizedAffinity>
-8.27379

> <CNNscore>
0.2352700382

> <CNNaffinity>
6.1003885269

> <CNN_VS>
1.4352385998

> <CNNaffinity_variance>
0.3807056844

$$$$



 37 42  0  0  0  0  0  0  0  0999 V2000
   -6.9672   -3.6149  -23.0163 C   0  0  0  0  0  0  0  0  0  0  0  0
   -6.4867   -3.2264  -21.6495 C   0  0  0  0  0  0  0  0  0  0  0  0
   -6.3188   -1.7360  -21.6235 N   0  0  0  0  0  0  0  0  0  0  0  0
   -6.6955   -1.2035  -22.9743 C   0  0  0  0  0  0  0  0  0  0  0  0
   -6.6751    0.2373  -23.3910 O   0  0  0  0  0  0  0  0  0  0  0  0
   -7.0963   -2.3647  -23.8351 C   0  0  0  0  0  0  0  0  0  0  0  0
   -7.1762   -1.0362  -24.5269 C   0  0  0  0  0  0  0  0  0  0  0  0
   -7.6268   -0.9605  -25.9556 N   0  0  0  0  0  0  0  0  0  0  0  0
   -7.9975   -2.2133  -26.6925 C   0  0  0  0  0  0  0  0  0  0  0  0
   -8.4482   -2.1376  -28.1212 O   0  0  0  0  0  0  0  0  0  0  0  0
   -7.9176   -3.5419  -26.0007 C   0  0  0  0  0  0  0  0  0  0  0  0
   -8.2884   -4.7947  -26.7375 C   0  0  0  0  0  0  0  0  0  0  0  0
   -8.2085   -6.1232  -26.0457 C   0  0  0  0  0  0  0  0  0  0  0  0
   -7.7578   -6.1989  -24.6170 C   0  0  0  0  0  0  0  0  0  0  0  0
   -7.6779   -7.5275  -23.9251 Cl  0  0  0  0  0  0  0  0  0  0  0  0
   -7.3871   -4.9461  -23.8801 C   0  0  0  0  0  0  0  0  0  0  0  0
   -7.4670   -3.6176  -24.5720 C   0  0  0  0  0  0  0  0  0  0  0  0
   -5.8556   -0.9212  -20.4524 C   0  0  0  0  0  0  0  0  0  0  0  0
   -6.5958   -0.9919  -19.1498 C   0  0  0  0  0  0  0  0  0  0  0  0
   -6.1326   -0.1771  -17.9787 N   0  0  0  0  0  0  0  0  0  0  0  0
   -4.9290    0.7084  -18.1103 C   0  0  0  0  0  0  0  0  0  0  0  0
   -4.1887    0.7790  -19.4130 C   0  0  0  0  0  0  0  0  0  0  0  0
   -2.9851    1.6646  -19.5446 C   0  0  0  0  0  0  0  0  0  0  0  0
   -2.2448    1.7352  -20.8473 C   0  0  0  0  0  0  0  0  0  0  0  0
   -2.7081    0.9204  -22.0183 C   0  0  0  0  0  0  0  0  0  0  0  0
   -3.9117    0.0349  -21.8867 C   0  0  0  0  0  0  0  0  0  0  0  0
   -4.6520   -0.0357  -20.5841 C   0  0  0  0  0  0  0  0  0  0  0  0
   -7.2662   -5.0089  -23.4825 C   0  0  0  0  0  0  0  0  0  0  0  0
   -5.8272   -6.3442  -21.7807 C   0  0  0  0  0  0  0  0  0  0  0  0
   -7.1082   -6.1651  -22.5401 O   0  0  0  0  0  0  0  0  0  0  0  0
   -7.7067    0.3680  -26.6475 C   0  0  0  0  0  0  0  0  0  0  0  0
   -8.4303    1.5098  -25.9974 C   0  0  0  0  0  0  0  0  0  0  0  0
   -9.5829    1.3949  -25.0443 N   0  0  0  0  0  0  0  0  0  0  0  0
   -9.9934    2.7811  -24.6442 C   0  0  0  0  0  0  0  0  0  0  0  0
   -9.0945    3.7527  -25.3500 C   0  0  0  0  0  0  0  0  0  0  0  0
   -8.1285    2.9670  -26.1864 N   0  0  0  0  0  0  0  0  0  0  0  0
   -7.4207    3.3418  -26.7588 H   0  0  0  0  0  0  0  0  0  0  0  0
 29 30  1  0  0  0
 30 28  1  0  0  0
  1 28  1  0  0  0
  1  2  1  0  0  0
  2  3  1  0  0  0
  3 18  1  0  0  0
 18 19  2  0  0  0
 19 20  1  0  0  0
 20 21  2  0  0  0
 21 22  1  0  0  0
 22 23  2  0  0  0
 23 24  1  0  0  0
 24 25  2  0  0  0
 25 26  1  0  0  0
 26 27  2  0  0  0
  3  4  1  0  0  0
  4  5  2  0  0  0
  4  6  1  0  0  0
  6  7  1  0  0  0
  7  8  1  0  0  0
  8 31  1  0  0  0
 31 32  1  0  0  0
 32 33  2  0  0  0
 33 34  1  0  0  0
 34 35  2  0  0  0
 35 36  1  0  0  0
  8  9  1  0  0  0
  9 10  2  0  0  0
  9 11  1  0  0  0
 11 12  2  0  0  0
 12 13  1  0  0  0
 13 14  2  0  0  0
 14 15  1  0  0  0
 14 16  1  0  0  0
 16 17  2  0  0  0
  6  1  1  0  0  0
 36 32  1  0  0  0
 17 11  1  0  0  0
 27 18  1  0  0  0
 17  6  1  0  0  0
 27 22  1  0  0  0
 36 37  1  0  0  0
M  END
> <minimizedAffinity>
-7.78295

> <CNNscore>
0.2236740738

> <CNNaffinity>
6.1420521736

> <CNN_VS>
1.3738178015

> <CNNaffinity_variance>
0.1555312425

$$$$



 37 42  0  0  0  0  0  0  0  0999 V2000
   -9.0198   -2.4486  -23.4737 C   0  0  0  0  0  0  0  0  0  0  0  0
  -10.0803   -1.5513  -24.0397 C   0  0  0  0  0  0  0  0  0  0  0  0
   -9.9534   -0.2103  -23.3798 N   0  0  0  0  0  0  0  0  0  0  0  0
   -8.8144   -0.2787  -22.4061 C   0  0  0  0  0  0  0  0  0  0  0  0
   -8.3365    0.8398  -21.5284 O   0  0  0  0  0  0  0  0  0  0  0  0
   -8.2374   -1.6621  -22.4641 C   0  0  0  0  0  0  0  0  0  0  0  0
   -7.5494   -0.7546  -21.4879 C   0  0  0  0  0  0  0  0  0  0  0  0
   -6.3931   -1.2623  -20.6784 N   0  0  0  0  0  0  0  0  0  0  0  0
   -5.9249   -2.6775  -20.8451 C   0  0  0  0  0  0  0  0  0  0  0  0
   -4.7686   -3.1852  -20.0357 O   0  0  0  0  0  0  0  0  0  0  0  0
   -6.6129   -3.5851  -21.8213 C   0  0  0  0  0  0  0  0  0  0  0  0
   -6.1447   -5.0003  -21.9880 C   0  0  0  0  0  0  0  0  0  0  0  0
   -6.8327   -5.9079  -22.9642 C   0  0  0  0  0  0  0  0  0  0  0  0
   -7.9890   -5.4002  -23.7737 C   0  0  0  0  0  0  0  0  0  0  0  0
   -8.6771   -6.3078  -24.7499 Cl  0  0  0  0  0  0  0  0  0  0  0  0
   -8.4573   -3.9849  -23.6070 C   0  0  0  0  0  0  0  0  0  0  0  0
   -7.7692   -3.0774  -22.6308 C   0  0  0  0  0  0  0  0  0  0  0  0
  -10.8142    0.9888  -23.6469 C   0  0  0  0  0  0  0  0  0  0  0  0
  -12.1660    1.0991  -23.0064 C   0  0  0  0  0  0  0  0  0  0  0  0
  -13.0268    2.2981  -23.2734 N   0  0  0  0  0  0  0  0  0  0  0  0
  -12.5358    3.3868  -24.1809 C   0  0  0  0  0  0  0  0  0  0  0  0
  -11.1839    3.2764  -24.8214 C   0  0  0  0  0  0  0  0  0  0  0  0
  -10.6928    4.3652  -25.7290 C   0  0  0  0  0  0  0  0  0  0  0  0
   -9.3409    4.2547  -26.3695 C   0  0  0  0  0  0  0  0  0  0  0  0
   -8.4802    3.0557  -26.1024 C   0  0  0  0  0  0  0  0  0  0  0  0
   -8.9712    1.9671  -25.1949 C   0  0  0  0  0  0  0  0  0  0  0  0
  -10.3230    2.0774  -24.5544 C   0  0  0  0  0  0  0  0  0  0  0  0
   -8.7832   -3.8809  -23.8512 C   0  0  0  0  0  0  0  0  0  0  0  0
   -9.3358   -5.8052  -25.5070 C   0  0  0  0  0  0  0  0  0  0  0  0
   -9.7665   -4.5978  -24.7282 O   0  0  0  0  0  0  0  0  0  0  0  0
   -5.7051   -0.3547  -19.7022 C   0  0  0  0  0  0  0  0  0  0  0  0
   -4.4313    0.3362  -20.0898 C   0  0  0  0  0  0  0  0  0  0  0  0
   -3.7264    0.2112  -21.4079 N   0  0  0  0  0  0  0  0  0  0  0  0
   -2.4983    1.0710  -21.3601 C   0  0  0  0  0  0  0  0  0  0  0  0
   -2.4442    1.7275  -20.0124 C   0  0  0  0  0  0  0  0  0  0  0  0
   -3.6389    1.2733  -19.2274 N   0  0  0  0  0  0  0  0  0  0  0  0
   -3.8635    1.5429  -18.3075 H   0  0  0  0  0  0  0  0  0  0  0  0
 29 30  1  0  0  0
 30 28  1  0  0  0
  1 28  1  0  0  0
  1  2  1  0  0  0
  2  3  1  0  0  0
  3 18  1  0  0  0
 18 19  2  0  0  0
 19 20  1  0  0  0
 20 21  2  0  0  0
 21 22  1  0  0  0
 22 23  2  0  0  0
 23 24  1  0  0  0
 24 25  2  0  0  0
 25 26  1  0  0  0
 26 27  2  0  0  0
  3  4  1  0  0  0
  4  5  2  0  0  0
  4  6  1  0  0  0
  6  7  1  0  0  0
  7  8  1  0  0  0
  8 31  1  0  0  0
 31 32  1  0  0  0
 32 33  2  0  0  0
 33 34  1  0  0  0
 34 35  2  0  0  0
 35 36  1  0  0  0
  8  9  1  0  0  0
  9 10  2  0  0  0
  9 11  1  0  0  0
 11 12  2  0  0  0
 12 13  1  0  0  0
 13 14  2  0  0  0
 14 15  1  0  0  0
 14 16  1  0  0  0
 16 17  2  0  0  0
  6  1  1  0  0  0
 36 32  1  0  0  0
 17 11  1  0  0  0
 27 18  1  0  0  0
 17  6  1  0  0  0
 27 22  1  0  0  0
 36 37  1  0  0  0
M  END
> <minimizedAffinity>
-8.16756

> <CNNscore>
0.2186046392

> <CNNaffinity>
6.1132373810

> <CNN_VS>
1.3363820314

> <CNNaffinity_variance>
0.0679467469

$$$$



 37 42  0  0  0  0  0  0  0  0999 V2000
   -6.3881   -4.1625  -22.6746 C   0  0  0  0  0  0  0  0  0  0  0  0
   -5.5261   -3.4736  -21.6586 C   0  0  0  0  0  0  0  0  0  0  0  0
   -6.2802   -2.2850  -21.1404 N   0  0  0  0  0  0  0  0  0  0  0  0
   -7.6083   -2.2394  -21.8361 C   0  0  0  0  0  0  0  0  0  0  0  0
   -8.6814   -1.2135  -21.6213 O   0  0  0  0  0  0  0  0  0  0  0  0
   -7.6750   -3.3997  -22.7843 C   0  0  0  0  0  0  0  0  0  0  0  0
   -8.9038   -2.5395  -22.7855 C   0  0  0  0  0  0  0  0  0  0  0  0
  -10.0552   -2.8777  -23.6854 N   0  0  0  0  0  0  0  0  0  0  0  0
   -9.9779   -4.0761  -24.5842 C   0  0  0  0  0  0  0  0  0  0  0  0
  -11.1293   -4.4143  -25.4841 O   0  0  0  0  0  0  0  0  0  0  0  0
   -8.7490   -4.9364  -24.5830 C   0  0  0  0  0  0  0  0  0  0  0  0
   -8.6716   -6.1348  -25.4818 C   0  0  0  0  0  0  0  0  0  0  0  0
   -7.4429   -6.9950  -25.4806 C   0  0  0  0  0  0  0  0  0  0  0  0
   -6.2914   -6.6568  -24.5807 C   0  0  0  0  0  0  0  0  0  0  0  0
   -5.0626   -7.5171  -24.5795 Cl  0  0  0  0  0  0  0  0  0  0  0  0
   -6.3688   -5.4584  -23.6819 C   0  0  0  0  0  0  0  0  0  0  0  0
   -7.5976   -4.5982  -23.6831 C   0  0  0  0  0  0  0  0  0  0  0  0
   -5.7920   -1.3127  -20.1077 C   0  0  0  0  0  0  0  0  0  0  0  0
   -6.3208   -1.3793  -18.7057 C   0  0  0  0  0  0  0  0  0  0  0  0
   -5.8326   -0.4070  -17.6730 N   0  0  0  0  0  0  0  0  0  0  0  0
   -4.8156    0.6317  -18.0425 C   0  0  0  0  0  0  0  0  0  0  0  0
   -4.2867    0.6983  -19.4446 C   0  0  0  0  0  0  0  0  0  0  0  0
   -3.2696    1.7371  -19.8141 C   0  0  0  0  0  0  0  0  0  0  0  0
   -2.7408    1.8035  -21.2162 C   0  0  0  0  0  0  0  0  0  0  0  0
   -3.2291    0.8313  -22.2488 C   0  0  0  0  0  0  0  0  0  0  0  0
   -4.2461   -0.2075  -21.8793 C   0  0  0  0  0  0  0  0  0  0  0  0
   -4.7749   -0.2740  -20.4773 C   0  0  0  0  0  0  0  0  0  0  0  0
   -6.0267   -5.3974  -23.4455 C   0  0  0  0  0  0  0  0  0  0  0  0
   -5.7354   -6.8585  -21.3171 C   0  0  0  0  0  0  0  0  0  0  0  0
   -5.3862   -6.5587  -22.7446 O   0  0  0  0  0  0  0  0  0  0  0  0
  -11.2841   -2.0174  -23.6866 C   0  0  0  0  0  0  0  0  0  0  0  0
  -11.1546   -0.5248  -23.7590 C   0  0  0  0  0  0  0  0  0  0  0  0
  -10.0429    0.2325  -24.4228 N   0  0  0  0  0  0  0  0  0  0  0  0
  -10.3153    1.6980  -24.2544 C   0  0  0  0  0  0  0  0  0  0  0  0
  -11.5953    1.8463  -23.4865 C   0  0  0  0  0  0  0  0  0  0  0  0
  -12.1140    0.4726  -23.1804 N   0  0  0  0  0  0  0  0  0  0  0  0
  -12.9393    0.2624  -22.6864 H   0  0  0  0  0  0  0  0  0  0  0  0
 29 30  1  0  0  0
 30 28  1  0  0  0
  1 28  1  0  0  0
  1  2  1  0  0  0
  2  3  1  0  0  0
  3 18  1  0  0  0
 18 19  2  0  0  0
 19 20  1  0  0  0
 20 21  2  0  0  0
 21 22  1  0  0  0
 22 23  2  0  0  0
 23 24  1  0  0  0
 24 25  2  0  0  0
 25 26  1  0  0  0
 26 27  2  0  0  0
  3  4  1  0  0  0
  4  5  2  0  0  0
  4  6  1  0  0  0
  6  7  1  0  0  0
  7  8  1  0  0  0
  8 31  1  0  0  0
 31 32  1  0  0  0
 32 33  2  0  0  0
 33 34  1  0  0  0
 34 35  2  0  0  0
 35 36  1  0  0  0
  8  9  1  0  0  0
  9 10  2  0  0  0
  9 11  1  0  0  0
 11 12  2  0  0  0
 12 13  1  0  0  0
 13 14  2  0  0  0
 14 15  1  0  0  0
 14 16  1  0  0  0
 16 17  2  0  0  0
  6  1  1  0  0  0
 36 32  1  0  0  0
 17 11  1  0  0  0
 27 18  1  0  0  0
 17  6  1  0  0  0
 27 22  1  0  0  0
 36 37  1  0  0  0
M  END
> <minimizedAffinity>
-8.79424

> <CNNscore>
0.2164970189

> <CNNaffinity>
6.1276421547

> <CNN_VS>
1.3266162872

> <CNNaffinity_variance>
0.2896877825

$$$$



 37 42  0  0  0  0  0  0  0  0999 V2000
  -10.0487   -1.3146  -23.4676 C   0  0  0  0  0  0  0  0  0  0  0  0
   -9.6076   -2.7468  -23.4027 C   0  0  0  0  0  0  0  0  0  0  0  0
   -8.1079   -2.7711  -23.4182 N   0  0  0  0  0  0  0  0  0  0  0  0
   -7.6221   -1.3539  -23.4927 C   0  0  0  0  0  0  0  0  0  0  0  0
   -6.1885   -0.9141  -23.5300 O   0  0  0  0  0  0  0  0  0  0  0  0
   -8.8216   -0.4537  -23.5232 C   0  0  0  0  0  0  0  0  0  0  0  0
   -7.5110    0.2743  -23.5732 C   0  0  0  0  0  0  0  0  0  0  0  0
   -7.4875    1.7723  -23.6465 N   0  0  0  0  0  0  0  0  0  0  0  0
   -8.7745    2.5424  -23.6697 C   0  0  0  0  0  0  0  0  0  0  0  0
   -8.7510    4.0404  -23.7429 O   0  0  0  0  0  0  0  0  0  0  0  0
  -10.0851    1.8144  -23.6196 C   0  0  0  0  0  0  0  0  0  0  0  0
  -11.3721    2.5845  -23.6428 C   0  0  0  0  0  0  0  0  0  0  0  0
  -12.6827    1.8565  -23.5927 C   0  0  0  0  0  0  0  0  0  0  0  0
  -12.7062    0.3585  -23.5195 C   0  0  0  0  0  0  0  0  0  0  0  0
  -14.0168   -0.3695  -23.4694 Cl  0  0  0  0  0  0  0  0  0  0  0  0
  -11.4192   -0.4116  -23.4963 C   0  0  0  0  0  0  0  0  0  0  0  0
  -10.1087    0.3164  -23.5464 C   0  0  0  0  0  0  0  0  0  0  0  0
   -7.2454   -3.9973  -23.3681 C   0  0  0  0  0  0  0  0  0  0  0  0
   -6.4807   -4.3258  -22.1203 C   0  0  0  0  0  0  0  0  0  0  0  0
   -5.6182   -5.5520  -22.0701 N   0  0  0  0  0  0  0  0  0  0  0  0
   -5.5204   -6.4496  -23.2679 C   0  0  0  0  0  0  0  0  0  0  0  0
   -6.2852   -6.1211  -24.5158 C   0  0  0  0  0  0  0  0  0  0  0  0
   -6.1874   -7.0188  -25.7136 C   0  0  0  0  0  0  0  0  0  0  0  0
   -6.9522   -6.6902  -26.9614 C   0  0  0  0  0  0  0  0  0  0  0  0
   -7.8146   -5.4640  -27.0115 C   0  0  0  0  0  0  0  0  0  0  0  0
   -7.9124   -4.5664  -25.8137 C   0  0  0  0  0  0  0  0  0  0  0  0
   -7.1477   -4.8949  -24.5659 C   0  0  0  0  0  0  0  0  0  0  0  0
  -11.4677   -0.8286  -23.4754 C   0  0  0  0  0  0  0  0  0  0  0  0
  -12.7056   -2.6514  -22.0989 C   0  0  0  0  0  0  0  0  0  0  0  0
  -12.5963   -1.8064  -23.3333 O   0  0  0  0  0  0  0  0  0  0  0  0
   -6.1769    2.5003  -23.6965 C   0  0  0  0  0  0  0  0  0  0  0  0
   -6.1134    3.9558  -23.3398 C   0  0  0  0  0  0  0  0  0  0  0  0
   -5.7286    5.0738  -24.2629 N   0  0  0  0  0  0  0  0  0  0  0  0
   -5.8008    6.3579  -23.4911 C   0  0  0  0  0  0  0  0  0  0  0  0
   -6.2303    6.0336  -22.0909 C   0  0  0  0  0  0  0  0  0  0  0  0
   -6.4234    4.5490  -21.9975 N   0  0  0  0  0  0  0  0  0  0  0  0
   -6.7044    4.0514  -21.1958 H   0  0  0  0  0  0  0  0  0  0  0  0
 29 30  1  0  0  0
 30 28  1  0  0  0
  1 28  1  0  0  0
  1  2  1  0  0  0
  2  3  1  0  0  0
  3 18  1  0  0  0
 18 19  2  0  0  0
 19 20  1  0  0  0
 20 21  2  0  0  0
 21 22  1  0  0  0
 22 23  2  0  0  0
 23 24  1  0  0  0
 24 25  2  0  0  0
 25 26  1  0  0  0
 26 27  2  0  0  0
  3  4  1  0  0  0
  4  5  2  0  0  0
  4  6  1  0  0  0
  6  7  1  0  0  0
  7  8  1  0  0  0
  8 31  1  0  0  0
 31 32  1  0  0  0
 32 33  2  0  0  0
 33 34  1  0  0  0
 34 35  2  0  0  0
 35 36  1  0  0  0
  8  9  1  0  0  0
  9 10  2  0  0  0
  9 11  1  0  0  0
 11 12  2  0  0  0
 12 13  1  0  0  0
 13 14  2  0  0  0
 14 15  1  0  0  0
 14 16  1  0  0  0
 16 17  2  0  0  0
  6  1  1  0  0  0
 36 32  1  0  0  0
 17 11  1  0  0  0
 27 18  1  0  0  0
 17  6  1  0  0  0
 27 22  1  0  0  0
 36 37  1  0  0  0
M  END
> <minimizedAffinity>
-6.99557

> <CNNscore>
0.1892174333

> <CNNaffinity>
6.2084255219

> <CNN_VS>
1.1747423410

> <CNNaffinity_variance>
0.1817283779

$$$$



 37 42  0  0  0  0  0  0  0  0999 V2000
   -8.9393    0.4680  -23.6873 C   0  0  0  0  0  0  0  0  0  0  0  0
   -7.4457    0.5709  -23.7794 C   0  0  0  0  0  0  0  0  0  0  0  0
   -7.0919    2.0153  -23.9761 N   0  0  0  0  0  0  0  0  0  0  0  0
   -8.3669    2.8049  -24.0057 C   0  0  0  0  0  0  0  0  0  0  0  0
   -8.4801    4.2901  -24.1826 O   0  0  0  0  0  0  0  0  0  0  0  0
   -9.5086    1.8487  -23.8272 C   0  0  0  0  0  0  0  0  0  0  0  0
   -9.9300    3.2800  -23.9811 C   0  0  0  0  0  0  0  0  0  0  0  0
  -11.3856    3.6410  -23.9482 N   0  0  0  0  0  0  0  0  0  0  0  0
  -12.4197    2.5707  -23.7614 C   0  0  0  0  0  0  0  0  0  0  0  0
  -13.8753    2.9317  -23.7285 O   0  0  0  0  0  0  0  0  0  0  0  0
  -11.9983    1.1393  -23.6074 C   0  0  0  0  0  0  0  0  0  0  0  0
  -13.0325    0.0690  -23.4206 C   0  0  0  0  0  0  0  0  0  0  0  0
  -12.6111   -1.3623  -23.2667 C   0  0  0  0  0  0  0  0  0  0  0  0
  -11.1556   -1.7233  -23.2996 C   0  0  0  0  0  0  0  0  0  0  0  0
  -10.7342   -3.1547  -23.1456 Cl  0  0  0  0  0  0  0  0  0  0  0  0
  -10.1214   -0.6530  -23.4864 C   0  0  0  0  0  0  0  0  0  0  0  0
  -10.5428    0.7783  -23.6403 C   0  0  0  0  0  0  0  0  0  0  0  0
   -5.7064    2.5722  -24.1184 C   0  0  0  0  0  0  0  0  0  0  0  0
   -5.2681    3.1685  -25.4230 C   0  0  0  0  0  0  0  0  0  0  0  0
   -3.8826    3.7254  -25.5653 N   0  0  0  0  0  0  0  0  0  0  0  0
   -2.9354    3.6860  -24.4028 C   0  0  0  0  0  0  0  0  0  0  0  0
   -3.3738    3.0897  -23.0981 C   0  0  0  0  0  0  0  0  0  0  0  0
   -2.4266    3.0503  -21.9356 C   0  0  0  0  0  0  0  0  0  0  0  0
   -2.8650    2.4539  -20.6309 C   0  0  0  0  0  0  0  0  0  0  0  0
   -4.2505    1.8971  -20.4887 C   0  0  0  0  0  0  0  0  0  0  0  0
   -5.1976    1.9365  -21.6512 C   0  0  0  0  0  0  0  0  0  0  0  0
   -4.7593    2.5328  -22.9558 C   0  0  0  0  0  0  0  0  0  0  0  0
   -9.7255   -0.7941  -23.4900 C   0  0  0  0  0  0  0  0  0  0  0  0
   -8.5959   -1.3538  -21.2184 C   0  0  0  0  0  0  0  0  0  0  0  0
   -9.2801   -1.8045  -22.4748 O   0  0  0  0  0  0  0  0  0  0  0  0
  -11.8069    5.0724  -24.1021 C   0  0  0  0  0  0  0  0  0  0  0  0
  -12.3453    5.5587  -25.4150 C   0  0  0  0  0  0  0  0  0  0  0  0
  -11.5314    5.9232  -26.6211 N   0  0  0  0  0  0  0  0  0  0  0  0
  -12.4752    6.3556  -27.7038 C   0  0  0  0  0  0  0  0  0  0  0  0
  -13.8725    6.2583  -27.1668 C   0  0  0  0  0  0  0  0  0  0  0  0
  -13.7922    5.7658  -25.7523 N   0  0  0  0  0  0  0  0  0  0  0  0
  -14.5551    5.6064  -25.1509 H   0  0  0  0  0  0  0  0  0  0  0  0
 29 30  1  0  0  0
 30 28  1  0  0  0
  1 28  1  0  0  0
  1  2  1  0  0  0
  2  3  1  0  0  0
  3 18  1  0  0  0
 18 19  2  0  0  0
 19 20  1  0  0  0
 20 21  2  0  0  0
 21 22  1  0  0  0
 22 23  2  0  0  0
 23 24  1  0  0  0
 24 25  2  0  0  0
 25 26  1  0  0  0
 26 27  2  0  0  0
  3  4  1  0  0  0
  4  5  2  0  0  0
  4  6  1  0  0  0
  6  7  1  0  0  0
  7  8  1  0  0  0
  8 31  1  0  0  0
 31 32  1  0  0  0
 32 33  2  0  0  0
 33 34  1  0  0  0
 34 35  2  0  0  0
 35 36  1  0  0  0
  8  9  1  0  0  0
  9 10  2  0  0  0
  9 11  1  0  0  0
 11 12  2  0  0  0
 12 13  1  0  0  0
 13 14  2  0  0  0
 14 15  1  0  0  0
 14 16  1  0  0  0
 16 17  2  0  0  0
  6  1  1  0  0  0
 36 32  1  0  0  0
 17 11  1  0  0  0
 27 18  1  0  0  0
 17  6  1  0  0  0
 27 22  1  0  0  0
 36 37  1  0  0  0
M  END
> <minimizedAffinity>
-7.16458

> <CNNscore>
0.1365507841

> <CNNaffinity>
5.9159231186

> <CNN_VS>
0.8078239560

> <CNNaffinity_variance>
0.1534461975

$$$$



 37 42  0  0  0  0  0  0  0  0999 V2000
   -8.8592    0.6611  -22.5005 C   0  0  0  0  0  0  0  0  0  0  0  0
   -7.6804    1.4170  -21.9627 C   0  0  0  0  0  0  0  0  0  0  0  0
   -6.5188    0.4710  -21.8865 N   0  0  0  0  0  0  0  0  0  0  0  0
   -6.9797   -0.8695  -22.3771 C   0  0  0  0  0  0  0  0  0  0  0  0
   -6.1413   -2.1097  -22.4717 O   0  0  0  0  0  0  0  0  0  0  0  0
   -8.4261   -0.7520  -22.7566 C   0  0  0  0  0  0  0  0  0  0  0  0
   -7.8512   -2.1223  -22.9609 C   0  0  0  0  0  0  0  0  0  0  0  0
   -8.7132   -3.2244  -23.5016 N   0  0  0  0  0  0  0  0  0  0  0  0
  -10.1501   -2.9562  -23.8379 C   0  0  0  0  0  0  0  0  0  0  0  0
  -11.0122   -4.0583  -24.3786 O   0  0  0  0  0  0  0  0  0  0  0  0
  -10.7252   -1.5859  -23.6336 C   0  0  0  0  0  0  0  0  0  0  0  0
  -12.1621   -1.3178  -23.9700 C   0  0  0  0  0  0  0  0  0  0  0  0
  -12.7371    0.0525  -23.7657 C   0  0  0  0  0  0  0  0  0  0  0  0
  -11.8751    1.1546  -23.2250 C   0  0  0  0  0  0  0  0  0  0  0  0
  -12.4501    2.5249  -23.0207 Cl  0  0  0  0  0  0  0  0  0  0  0  0
  -10.4381    0.8865  -22.8887 C   0  0  0  0  0  0  0  0  0  0  0  0
   -9.8632   -0.4838  -23.0930 C   0  0  0  0  0  0  0  0  0  0  0  0
   -5.1386    0.8066  -21.4043 C   0  0  0  0  0  0  0  0  0  0  0  0
   -4.9049    1.1152  -19.9552 C   0  0  0  0  0  0  0  0  0  0  0  0
   -3.5247    1.4508  -19.4730 N   0  0  0  0  0  0  0  0  0  0  0  0
   -2.3784    1.4777  -20.4400 C   0  0  0  0  0  0  0  0  0  0  0  0
   -2.6121    1.1691  -21.8892 C   0  0  0  0  0  0  0  0  0  0  0  0
   -1.4657    1.1960  -22.8562 C   0  0  0  0  0  0  0  0  0  0  0  0
   -1.6996    0.8873  -24.3053 C   0  0  0  0  0  0  0  0  0  0  0  0
   -3.0797    0.5518  -24.7874 C   0  0  0  0  0  0  0  0  0  0  0  0
   -4.2261    0.5249  -23.8205 C   0  0  0  0  0  0  0  0  0  0  0  0
   -3.9923    0.8335  -22.3714 C   0  0  0  0  0  0  0  0  0  0  0  0
  -10.2303    1.2202  -22.7401 C   0  0  0  0  0  0  0  0  0  0  0  0
   -9.4265    2.7491  -24.6807 C   0  0  0  0  0  0  0  0  0  0  0  0
  -10.4025    2.4497  -23.5818 O   0  0  0  0  0  0  0  0  0  0  0  0
   -8.1381   -4.5947  -23.7058 C   0  0  0  0  0  0  0  0  0  0  0  0
   -8.4193   -5.3446  -24.9741 C   0  0  0  0  0  0  0  0  0  0  0  0
   -8.7415   -6.8056  -25.0815 N   0  0  0  0  0  0  0  0  0  0  0  0
   -8.9490   -7.1291  -26.5314 C   0  0  0  0  0  0  0  0  0  0  0  0
   -8.7549   -5.8680  -27.3202 C   0  0  0  0  0  0  0  0  0  0  0  0
   -8.4276   -4.7651  -26.3577 N   0  0  0  0  0  0  0  0  0  0  0  0
   -8.2494   -3.8259  -26.5927 H   0  0  0  0  0  0  0  0  0  0  0  0
 29 30  1  0  0  0
 30 28  1  0  0  0
  1 28  1  0  0  0
  1  2  1  0  0  0
  2  3  1  0  0  0
  3 18  1  0  0  0
 18 19  2  0  0  0
 19 20  1  0  0  0
 20 21  2  0  0  0
 21 22  1  0  0  0
 22 23  2  0  0  0
 23 24  1  0  0  0
 24 25  2  0  0  0
 25 26  1  0  0  0
 26 27  2  0  0  0
  3  4  1  0  0  0
  4  5  2  0  0  0
  4  6  1  0  0  0
  6  7  1  0  0  0
  7  8  1  0  0  0
  8 31  1  0  0  0
 31 32  1  0  0  0
 32 33  2  0  0  0
 33 34  1  0  0  0
 34 35  2  0  0  0
 35 36  1  0  0  0
  8  9  1  0  0  0
  9 10  2  0  0  0
  9 11  1  0  0  0
 11 12  2  0  0  0
 12 13  1  0  0  0
 13 14  2  0  0  0
 14 15  1  0  0  0
 14 16  1  0  0  0
 16 17  2  0  0  0
  6  1  1  0  0  0
 36 32  1  0  0  0
 17 11  1  0  0  0
 27 18  1  0  0  0
 17  6  1  0  0  0
 27 22  1  0  0  0
 36 37  1  0  0  0
M  END
> <minimizedAffinity>
-7.72047

> <CNNscore>
0.1360155642

> <CNNaffinity>
6.0326666832

> <CNN_VS>
0.8205365539

> <CNNaffinity_variance>
0.2305072099

$$$$
