


 36 41  0  0  0  0  0  0  0  0999 V2000
    7.0928   -3.2920   23.6771 N   0  0  0  0  0  0  0  0  0  0  0  0
    7.2620   -1.9053   23.1307 C   0  0  0  0  0  0  0  0  0  0  0  0
    8.5128   -1.1310   23.4240 C   0  0  0  0  0  0  0  0  0  0  0  0
    9.7016   -0.2403   23.6320 C   0  0  0  0  0  0  0  0  0  0  0  0
   10.7803   -0.2431   24.1913 O   0  0  0  0  0  0  0  0  0  0  0  0
    9.4464    1.0496   22.9102 N   0  0  0  0  0  0  0  0  0  0  0  0
    8.0997    0.9562   22.2562 C   0  0  0  0  0  0  0  0  0  0  0  0
    7.5227   -0.3915   22.5737 C   0  0  0  0  0  0  0  0  0  0  0  0
    6.1897   -0.9089   22.1204 C   0  0  0  0  0  0  0  0  0  0  0  0
    9.5945   -1.7434   24.2636 C   0  0  0  0  0  0  0  0  0  0  0  0
   10.8452   -0.9692   24.5568 C   0  0  0  0  0  0  0  0  0  0  0  0
   11.9269   -1.5816   25.3964 C   0  0  0  0  0  0  0  0  0  0  0  0
   13.1777   -0.8074   25.6897 F   0  0  0  0  0  0  0  0  0  0  0  0
   11.7577   -2.9683   25.9428 C   0  0  0  0  0  0  0  0  0  0  0  0
   10.5069   -3.7426   25.6495 C   0  0  0  0  0  0  0  0  0  0  0  0
    9.4253   -3.1301   24.8100 C   0  0  0  0  0  0  0  0  0  0  0  0
    8.1745   -3.9044   24.5167 C   0  0  0  0  0  0  0  0  0  0  0  0
    8.2924   -4.8688   25.0185 O   0  0  0  0  0  0  0  0  0  0  0  0
   10.3748    2.2264   22.8527 C   0  0  0  0  0  0  0  0  0  0  0  0
   11.8437    2.0129   22.6367 C   0  0  0  0  0  0  0  0  0  0  0  0
   12.7721    3.1897   22.5791 N   0  0  0  0  0  0  0  0  0  0  0  0
   12.2316    4.5799   22.7376 C   0  0  0  0  0  0  0  0  0  0  0  0
   10.7626    4.7933   22.9536 C   0  0  0  0  0  0  0  0  0  0  0  0
   10.2221    6.1836   23.1121 C   0  0  0  0  0  0  0  0  0  0  0  0
    8.7531    6.3969   23.3281 C   0  0  0  0  0  0  0  0  0  0  0  0
    7.8247    5.2202   23.3857 C   0  0  0  0  0  0  0  0  0  0  0  0
    8.3653    3.8300   23.2272 C   0  0  0  0  0  0  0  0  0  0  0  0
    9.8342    3.6166   23.0112 C   0  0  0  0  0  0  0  0  0  0  0  0
    5.8420   -4.0662   23.3838 C   0  0  0  0  0  0  0  0  0  0  0  0
    5.8797   -6.6460   24.0828 N   0  0  0  0  0  0  0  0  0  0  0  0
    5.2563   -7.4567   25.1802 N   0  0  0  0  0  0  0  0  0  0  0  0
    4.4424   -6.5313   26.0352 C   0  0  0  0  0  0  0  0  0  0  0  0
    4.5628   -5.1486   25.4664 C   0  0  0  0  0  0  0  0  0  0  0  0
    5.4510   -5.2194   24.2597 C   0  0  0  0  0  0  0  0  0  0  0  0
    6.6921   -6.5960   21.6155 C   0  0  0  0  0  0  0  0  0  0  0  0
    6.7746   -7.1698   22.9989 C   0  0  0  0  0  0  0  0  0  0  0  0
 35 36  1  0  0  0
 36 30  1  0  0  0
 30 31  1  0  0  0
 31 32  2  0  0  0
 32 33  1  0  0  0
 33 34  2  0  0  0
 34 29  1  0  0  0
 29  1  1  0  0  0
  1  2  1  0  0  0
  3  2  1  0  0  0
  3  4  1  0  0  0
  4  5  2  0  0  0
  4  6  1  0  0  0
  6 19  1  0  0  0
 19 20  2  0  0  0
 20 21  1  0  0  0
 21 22  2  0  0  0
 22 23  1  0  0  0
 23 24  2  0  0  0
 24 25  1  0  0  0
 25 26  2  0  0  0
 26 27  1  0  0  0
 27 28  2  0  0  0
  6  7  1  0  0  0
  7  8  1  0  0  0
  8  9  1  0  0  0
  3 10  1  0  0  0
 10 11  2  0  0  0
 11 12  1  0  0  0
 12 13  1  0  0  0
 12 14  2  0  0  0
 14 15  1  0  0  0
 15 16  2  0  0  0
 16 17  1  0  0  0
 17 18  2  0  0  0
 34 30  1  0  0  0
 17  1  1  0  0  0
  8  3  1  0  0  0
 16 10  1  0  0  0
 28 19  1  0  0  0
 28 23  1  0  0  0
M  END
> <minimizedAffinity>
-8.44195

> <CNNscore>
0.3984367549

> <CNNaffinity>
6.7647185326

> <CNN_VS>
2.6953125000

> <CNNaffinity_variance>
0.1216986030

$$$$



 36 41  0  0  0  0  0  0  0  0999 V2000
    7.4105   -3.6086   23.5050 N   0  0  0  0  0  0  0  0  0  0  0  0
    7.5225   -2.2213   22.9456 C   0  0  0  0  0  0  0  0  0  0  0  0
    8.7021   -1.3639   23.2968 C   0  0  0  0  0  0  0  0  0  0  0  0
    9.8175   -0.3955   23.5574 C   0  0  0  0  0  0  0  0  0  0  0  0
   10.8596   -0.3210   24.1777 O   0  0  0  0  0  0  0  0  0  0  0  0
    9.5231    0.8654   22.8002 N   0  0  0  0  0  0  0  0  0  0  0  0
    8.2256    0.6763   22.0716 C   0  0  0  0  0  0  0  0  0  0  0  0
    7.7182   -0.7015   22.3785 C   0  0  0  0  0  0  0  0  0  0  0  0
    6.4497   -1.3100   21.8585 C   0  0  0  0  0  0  0  0  0  0  0  0
    9.7698   -1.8938   24.2075 C   0  0  0  0  0  0  0  0  0  0  0  0
   10.9493   -1.0364   24.5588 C   0  0  0  0  0  0  0  0  0  0  0  0
   12.0170   -1.5662   25.4694 C   0  0  0  0  0  0  0  0  0  0  0  0
   13.1966   -0.7088   25.8207 F   0  0  0  0  0  0  0  0  0  0  0  0
   11.9050   -2.9535   26.0289 C   0  0  0  0  0  0  0  0  0  0  0  0
   10.7254   -3.8109   25.6777 C   0  0  0  0  0  0  0  0  0  0  0  0
    9.6578   -3.2810   24.7670 C   0  0  0  0  0  0  0  0  0  0  0  0
    8.4782   -4.1384   24.4157 C   0  0  0  0  0  0  0  0  0  0  0  0
    8.6278   -5.0863   24.9400 O   0  0  0  0  0  0  0  0  0  0  0  0
   10.3763    2.0989   22.7758 C   0  0  0  0  0  0  0  0  0  0  0  0
   11.8588    1.9816   22.5796 C   0  0  0  0  0  0  0  0  0  0  0  0
   12.7120    3.2151   22.5552 N   0  0  0  0  0  0  0  0  0  0  0  0
   12.0827    4.5658   22.7271 C   0  0  0  0  0  0  0  0  0  0  0  0
   10.6002    4.6830   22.9234 C   0  0  0  0  0  0  0  0  0  0  0  0
    9.9709    6.0338   23.0953 C   0  0  0  0  0  0  0  0  0  0  0  0
    8.4884    6.1510   23.2916 C   0  0  0  0  0  0  0  0  0  0  0  0
    7.6352    4.9175   23.3159 C   0  0  0  0  0  0  0  0  0  0  0  0
    8.2645    3.5668   23.1440 C   0  0  0  0  0  0  0  0  0  0  0  0
    9.7470    3.4496   22.9477 C   0  0  0  0  0  0  0  0  0  0  0  0
    6.2309   -4.4660   23.1538 C   0  0  0  0  0  0  0  0  0  0  0  0
    4.8890   -5.1425   25.3644 N   0  0  0  0  0  0  0  0  0  0  0  0
    4.5814   -6.4325   26.0654 N   0  0  0  0  0  0  0  0  0  0  0  0
    5.2066   -7.5473   25.2803 C   0  0  0  0  0  0  0  0  0  0  0  0
    5.9005   -6.9463   24.0940 C   0  0  0  0  0  0  0  0  0  0  0  0
    5.7043   -5.4601   24.1460 C   0  0  0  0  0  0  0  0  0  0  0  0
    5.4850   -2.7290   26.1193 C   0  0  0  0  0  0  0  0  0  0  0  0
    4.4572   -3.7751   25.8046 C   0  0  0  0  0  0  0  0  0  0  0  0
 35 36  1  0  0  0
 36 30  1  0  0  0
 30 31  1  0  0  0
 31 32  2  0  0  0
 32 33  1  0  0  0
 33 34  2  0  0  0
 34 29  1  0  0  0
 29  1  1  0  0  0
  1  2  1  0  0  0
  3  2  1  0  0  0
  3  4  1  0  0  0
  4  5  2  0  0  0
  4  6  1  0  0  0
  6 19  1  0  0  0
 19 20  2  0  0  0
 20 21  1  0  0  0
 21 22  2  0  0  0
 22 23  1  0  0  0
 23 24  2  0  0  0
 24 25  1  0  0  0
 25 26  2  0  0  0
 26 27  1  0  0  0
 27 28  2  0  0  0
  6  7  1  0  0  0
  7  8  1  0  0  0
  8  9  1  0  0  0
  3 10  1  0  0  0
 10 11  2  0  0  0
 11 12  1  0  0  0
 12 13  1  0  0  0
 12 14  2  0  0  0
 14 15  1  0  0  0
 15 16  2  0  0  0
 16 17  1  0  0  0
 17 18  2  0  0  0
 34 30  1  0  0  0
 17  1  1  0  0  0
  8  3  1  0  0  0
 16 10  1  0  0  0
 28 19  1  0  0  0
 28 23  1  0  0  0
M  END
> <minimizedAffinity>
-8.30933

> <CNNscore>
0.3906870782

> <CNNaffinity>
6.7172021866

> <CNN_VS>
2.6243240833

> <CNNaffinity_variance>
0.1959928125

$$$$



 36 41  0  0  0  0  0  0  0  0999 V2000
   10.5948    0.2956   23.0167 N   0  0  0  0  0  0  0  0  0  0  0  0
    9.3884   -0.5669   22.7913 C   0  0  0  0  0  0  0  0  0  0  0  0
    9.2401   -1.8592   23.5382 C   0  0  0  0  0  0  0  0  0  0  0  0
    8.9560   -3.1705   24.2087 C   0  0  0  0  0  0  0  0  0  0  0  0
    9.4486   -3.9253   25.0236 O   0  0  0  0  0  0  0  0  0  0  0  0
    7.6463   -3.6835   23.6876 N   0  0  0  0  0  0  0  0  0  0  0  0
    7.1209   -2.6892   22.6950 C   0  0  0  0  0  0  0  0  0  0  0  0
    8.1060   -1.5617   22.6026 C   0  0  0  0  0  0  0  0  0  0  0  0
    7.9791   -0.3495   21.7282 C   0  0  0  0  0  0  0  0  0  0  0  0
   10.2983   -2.2891   24.5106 C   0  0  0  0  0  0  0  0  0  0  0  0
   10.1500   -3.5814   25.2575 C   0  0  0  0  0  0  0  0  0  0  0  0
   11.2081   -4.0113   26.2299 C   0  0  0  0  0  0  0  0  0  0  0  0
   11.0599   -5.3037   26.9768 F   0  0  0  0  0  0  0  0  0  0  0  0
   12.4145   -3.1489   26.4553 C   0  0  0  0  0  0  0  0  0  0  0  0
   12.5628   -1.8566   25.7084 C   0  0  0  0  0  0  0  0  0  0  0  0
   11.5047   -1.4267   24.7361 C   0  0  0  0  0  0  0  0  0  0  0  0
   11.6529   -0.1343   23.9891 C   0  0  0  0  0  0  0  0  0  0  0  0
   12.5989    0.3003   24.3237 O   0  0  0  0  0  0  0  0  0  0  0  0
    6.9791   -4.9657   24.0887 C   0  0  0  0  0  0  0  0  0  0  0  0
    7.4404   -6.2668   23.5019 C   0  0  0  0  0  0  0  0  0  0  0  0
    6.7732   -7.5489   23.9029 N   0  0  0  0  0  0  0  0  0  0  0  0
    5.6447   -7.5300   24.8909 C   0  0  0  0  0  0  0  0  0  0  0  0
    5.1834   -6.2289   25.4777 C   0  0  0  0  0  0  0  0  0  0  0  0
    4.0548   -6.2100   26.4657 C   0  0  0  0  0  0  0  0  0  0  0  0
    3.5935   -4.9089   27.0525 C   0  0  0  0  0  0  0  0  0  0  0  0
    4.2607   -3.6267   26.6514 C   0  0  0  0  0  0  0  0  0  0  0  0
    5.3892   -3.6456   25.6635 C   0  0  0  0  0  0  0  0  0  0  0  0
    5.8506   -4.9467   25.0766 C   0  0  0  0  0  0  0  0  0  0  0  0
   10.7430    1.5879   22.2698 C   0  0  0  0  0  0  0  0  0  0  0  0
   10.4114    4.2079   22.6835 N   0  0  0  0  0  0  0  0  0  0  0  0
    9.2805    5.0721   23.1569 N   0  0  0  0  0  0  0  0  0  0  0  0
    8.1057    4.1838   23.4410 C   0  0  0  0  0  0  0  0  0  0  0  0
    8.5106    2.7705   23.1433 C   0  0  0  0  0  0  0  0  0  0  0  0
    9.9356    2.7853   22.6751 C   0  0  0  0  0  0  0  0  0  0  0  0
   11.9950    6.1202   21.9185 C   0  0  0  0  0  0  0  0  0  0  0  0
   11.7782    4.6828   22.2880 C   0  0  0  0  0  0  0  0  0  0  0  0
 35 36  1  0  0  0
 36 30  1  0  0  0
 30 31  1  0  0  0
 31 32  2  0  0  0
 32 33  1  0  0  0
 33 34  2  0  0  0
 34 29  1  0  0  0
 29  1  1  0  0  0
  1  2  1  0  0  0
  3  2  1  0  0  0
  3  4  1  0  0  0
  4  5  2  0  0  0
  4  6  1  0  0  0
  6 19  1  0  0  0
 19 20  2  0  0  0
 20 21  1  0  0  0
 21 22  2  0  0  0
 22 23  1  0  0  0
 23 24  2  0  0  0
 24 25  1  0  0  0
 25 26  2  0  0  0
 26 27  1  0  0  0
 27 28  2  0  0  0
  6  7  1  0  0  0
  7  8  1  0  0  0
  8  9  1  0  0  0
  3 10  1  0  0  0
 10 11  2  0  0  0
 11 12  1  0  0  0
 12 13  1  0  0  0
 12 14  2  0  0  0
 14 15  1  0  0  0
 15 16  2  0  0  0
 16 17  1  0  0  0
 17 18  2  0  0  0
 34 30  1  0  0  0
 17  1  1  0  0  0
  8  3  1  0  0  0
 16 10  1  0  0  0
 28 19  1  0  0  0
 28 23  1  0  0  0
M  END
> <minimizedAffinity>
-8.97533

> <CNNscore>
0.3905208707

> <CNNaffinity>
6.7402639389

> <CNN_VS>
2.6322138309

> <CNNaffinity_variance>
0.2643480301

$$$$



 36 41  0  0  0  0  0  0  0  0999 V2000
    9.1637   -1.8974   24.4054 N   0  0  0  0  0  0  0  0  0  0  0  0
    8.7554   -0.7734   23.4999 C   0  0  0  0  0  0  0  0  0  0  0  0
    7.5249    0.0277   23.8067 C   0  0  0  0  0  0  0  0  0  0  0  0
    6.3262    0.9118   23.9840 C   0  0  0  0  0  0  0  0  0  0  0  0
    5.3916    1.0714   24.7438 O   0  0  0  0  0  0  0  0  0  0  0  0
    6.3041    1.8954   22.8518 N   0  0  0  0  0  0  0  0  0  0  0  0
    7.4892    1.6194   21.9747 C   0  0  0  0  0  0  0  0  0  0  0  0
    8.2437    0.4651   22.5649 C   0  0  0  0  0  0  0  0  0  0  0  0
    9.4970   -0.1448   22.0105 C   0  0  0  0  0  0  0  0  0  0  0  0
    6.7027   -0.2952   25.0190 C   0  0  0  0  0  0  0  0  0  0  0  0
    5.4722    0.5059   25.3258 C   0  0  0  0  0  0  0  0  0  0  0  0
    4.6501    0.1830   26.5381 C   0  0  0  0  0  0  0  0  0  0  0  0
    3.4195    0.9841   26.8450 F   0  0  0  0  0  0  0  0  0  0  0  0
    5.0583   -0.9410   27.4436 C   0  0  0  0  0  0  0  0  0  0  0  0
    6.2888   -1.7421   27.1368 C   0  0  0  0  0  0  0  0  0  0  0  0
    7.1110   -1.4192   25.9245 C   0  0  0  0  0  0  0  0  0  0  0  0
    8.3415   -2.2203   25.6177 C   0  0  0  0  0  0  0  0  0  0  0  0
    8.4213   -2.9666   26.4129 O   0  0  0  0  0  0  0  0  0  0  0  0
    5.2772    2.9670   22.6348 C   0  0  0  0  0  0  0  0  0  0  0  0
    5.1751    4.1139   23.5962 C   0  0  0  0  0  0  0  0  0  0  0  0
    4.1482    5.1855   23.3792 N   0  0  0  0  0  0  0  0  0  0  0  0
    3.2233    5.1102   22.2007 C   0  0  0  0  0  0  0  0  0  0  0  0
    3.3253    3.9634   21.2393 C   0  0  0  0  0  0  0  0  0  0  0  0
    2.4004    3.8882   20.0607 C   0  0  0  0  0  0  0  0  0  0  0  0
    2.5024    2.7414   19.0993 C   0  0  0  0  0  0  0  0  0  0  0  0
    3.5294    1.6698   19.3163 C   0  0  0  0  0  0  0  0  0  0  0  0
    4.4543    1.7450   20.4948 C   0  0  0  0  0  0  0  0  0  0  0  0
    4.3523    2.8918   21.4563 C   0  0  0  0  0  0  0  0  0  0  0  0
   10.3942   -2.6985   24.0985 C   0  0  0  0  0  0  0  0  0  0  0  0
   12.6979   -1.4830   24.6994 N   0  0  0  0  0  0  0  0  0  0  0  0
   13.7479   -1.6626   25.7555 N   0  0  0  0  0  0  0  0  0  0  0  0
   13.3322   -2.8061   26.6328 C   0  0  0  0  0  0  0  0  0  0  0  0
   12.0254   -3.3333   26.1188 C   0  0  0  0  0  0  0  0  0  0  0  0
   11.6333   -2.5157   24.9239 C   0  0  0  0  0  0  0  0  0  0  0  0
   13.0554   -0.8490   22.2054 C   0  0  0  0  0  0  0  0  0  0  0  0
   12.7104   -0.4519   23.6100 C   0  0  0  0  0  0  0  0  0  0  0  0
 35 36  1  0  0  0
 36 30  1  0  0  0
 30 31  1  0  0  0
 31 32  2  0  0  0
 32 33  1  0  0  0
 33 34  2  0  0  0
 34 29  1  0  0  0
 29  1  1  0  0  0
  1  2  1  0  0  0
  3  2  1  0  0  0
  3  4  1  0  0  0
  4  5  2  0  0  0
  4  6  1  0  0  0
  6 19  1  0  0  0
 19 20  2  0  0  0
 20 21  1  0  0  0
 21 22  2  0  0  0
 22 23  1  0  0  0
 23 24  2  0  0  0
 24 25  1  0  0  0
 25 26  2  0  0  0
 26 27  1  0  0  0
 27 28  2  0  0  0
  6  7  1  0  0  0
  7  8  1  0  0  0
  8  9  1  0  0  0
  3 10  1  0  0  0
 10 11  2  0  0  0
 11 12  1  0  0  0
 12 13  1  0  0  0
 12 14  2  0  0  0
 14 15  1  0  0  0
 15 16  2  0  0  0
 16 17  1  0  0  0
 17 18  2  0  0  0
 34 30  1  0  0  0
 17  1  1  0  0  0
  8  3  1  0  0  0
 16 10  1  0  0  0
 28 19  1  0  0  0
 28 23  1  0  0  0
M  END
> <minimizedAffinity>
-7.94247

> <CNNscore>
0.2844994962

> <CNNaffinity>
6.5653066635

> <CNN_VS>
1.8678264618

> <CNNaffinity_variance>
0.0316517428

$$$$



 36 41  0  0  0  0  0  0  0  0999 V2000
    6.9536   -2.9144   24.5153 N   0  0  0  0  0  0  0  0  0  0  0  0
    7.0965   -1.5452   23.9195 C   0  0  0  0  0  0  0  0  0  0  0  0
    8.4276   -0.8541   23.9389 C   0  0  0  0  0  0  0  0  0  0  0  0
    9.6884   -0.0431   23.8850 C   0  0  0  0  0  0  0  0  0  0  0  0
   10.8557   -0.1143   24.2146 O   0  0  0  0  0  0  0  0  0  0  0  0
    9.3748    1.2567   23.2052 N   0  0  0  0  0  0  0  0  0  0  0  0
    7.9202    1.2491   22.8390 C   0  0  0  0  0  0  0  0  0  0  0  0
    7.3349   -0.0554   23.2924 C   0  0  0  0  0  0  0  0  0  0  0  0
    5.9073   -0.4857   23.1281 C   0  0  0  0  0  0  0  0  0  0  0  0
    9.6160   -1.5321   24.5539 C   0  0  0  0  0  0  0  0  0  0  0  0
   10.9471   -0.8410   24.5733 C   0  0  0  0  0  0  0  0  0  0  0  0
   12.1353   -1.5190   25.1883 C   0  0  0  0  0  0  0  0  0  0  0  0
   13.4665   -0.8279   25.2077 F   0  0  0  0  0  0  0  0  0  0  0  0
   11.9924   -2.8882   25.7841 C   0  0  0  0  0  0  0  0  0  0  0  0
   10.6613   -3.5794   25.7647 C   0  0  0  0  0  0  0  0  0  0  0  0
    9.4731   -2.9013   25.1497 C   0  0  0  0  0  0  0  0  0  0  0  0
    8.1419   -3.5925   25.1303 C   0  0  0  0  0  0  0  0  0  0  0  0
    8.2974   -4.5596   25.6163 O   0  0  0  0  0  0  0  0  0  0  0  0
   10.3454    2.3688   22.9386 C   0  0  0  0  0  0  0  0  0  0  0  0
   11.7711    2.0538   22.5949 C   0  0  0  0  0  0  0  0  0  0  0  0
   12.7417    3.1659   22.3283 N   0  0  0  0  0  0  0  0  0  0  0  0
   12.2866    4.5931   22.4053 C   0  0  0  0  0  0  0  0  0  0  0  0
   10.8609    4.9082   22.7490 C   0  0  0  0  0  0  0  0  0  0  0  0
   10.4058    6.3354   22.8260 C   0  0  0  0  0  0  0  0  0  0  0  0
    8.9800    6.6504   23.1697 C   0  0  0  0  0  0  0  0  0  0  0  0
    8.0094    5.5383   23.4363 C   0  0  0  0  0  0  0  0  0  0  0  0
    8.4646    4.1111   23.3593 C   0  0  0  0  0  0  0  0  0  0  0  0
    9.8903    3.7960   23.0156 C   0  0  0  0  0  0  0  0  0  0  0  0
    5.6224   -3.6056   24.4959 C   0  0  0  0  0  0  0  0  0  0  0  0
    4.3477   -5.7973   23.6494 N   0  0  0  0  0  0  0  0  0  0  0  0
    4.4257   -6.6644   22.4278 N   0  0  0  0  0  0  0  0  0  0  0  0
    5.4859   -6.1027   21.5275 C   0  0  0  0  0  0  0  0  0  0  0  0
    6.0632   -4.8885   22.1927 C   0  0  0  0  0  0  0  0  0  0  0  0
    5.3599   -4.6998   23.5040 C   0  0  0  0  0  0  0  0  0  0  0  0
    3.9778   -6.2484   26.1811 C   0  0  0  0  0  0  0  0  0  0  0  0
    3.4206   -5.9934   24.8121 C   0  0  0  0  0  0  0  0  0  0  0  0
 35 36  1  0  0  0
 36 30  1  0  0  0
 30 31  1  0  0  0
 31 32  2  0  0  0
 32 33  1  0  0  0
 33 34  2  0  0  0
 34 29  1  0  0  0
 29  1  1  0  0  0
  1  2  1  0  0  0
  3  2  1  0  0  0
  3  4  1  0  0  0
  4  5  2  0  0  0
  4  6  1  0  0  0
  6 19  1  0  0  0
 19 20  2  0  0  0
 20 21  1  0  0  0
 21 22  2  0  0  0
 22 23  1  0  0  0
 23 24  2  0  0  0
 24 25  1  0  0  0
 25 26  2  0  0  0
 26 27  1  0  0  0
 27 28  2  0  0  0
  6  7  1  0  0  0
  7  8  1  0  0  0
  8  9  1  0  0  0
  3 10  1  0  0  0
 10 11  2  0  0  0
 11 12  1  0  0  0
 12 13  1  0  0  0
 12 14  2  0  0  0
 14 15  1  0  0  0
 15 16  2  0  0  0
 16 17  1  0  0  0
 17 18  2  0  0  0
 34 30  1  0  0  0
 17  1  1  0  0  0
  8  3  1  0  0  0
 16 10  1  0  0  0
 28 19  1  0  0  0
 28 23  1  0  0  0
M  END
> <minimizedAffinity>
-7.65573

> <CNNscore>
0.2667795420

> <CNNaffinity>
6.5703496933

> <CNN_VS>
1.7528349161

> <CNNaffinity_variance>
0.2015188038

$$$$



 36 41  0  0  0  0  0  0  0  0999 V2000
    9.2330   -1.3560   24.6586 N   0  0  0  0  0  0  0  0  0  0  0  0
    9.3695   -0.0451   23.9424 C   0  0  0  0  0  0  0  0  0  0  0  0
    8.4137    1.0730   24.2359 C   0  0  0  0  0  0  0  0  0  0  0  0
    7.5372    2.2757   24.4235 C   0  0  0  0  0  0  0  0  0  0  0  0
    6.5738    2.6333   25.0720 O   0  0  0  0  0  0  0  0  0  0  0  0
    8.0324    3.3573   23.5099 N   0  0  0  0  0  0  0  0  0  0  0  0
    9.2150    2.8231   22.7575 C   0  0  0  0  0  0  0  0  0  0  0  0
    9.4506    1.4113   23.2062 C   0  0  0  0  0  0  0  0  0  0  0  0
   10.5332    0.4982   22.7120 C   0  0  0  0  0  0  0  0  0  0  0  0
    7.3212    0.8802   25.2456 C   0  0  0  0  0  0  0  0  0  0  0  0
    6.3653    1.9982   25.5390 C   0  0  0  0  0  0  0  0  0  0  0  0
    5.2729    1.8054   26.5487 C   0  0  0  0  0  0  0  0  0  0  0  0
    4.3170    2.9235   26.8422 F   0  0  0  0  0  0  0  0  0  0  0  0
    5.1364    0.4945   27.2649 C   0  0  0  0  0  0  0  0  0  0  0  0
    6.0923   -0.6235   26.9714 C   0  0  0  0  0  0  0  0  0  0  0  0
    7.1847   -0.4307   25.9618 C   0  0  0  0  0  0  0  0  0  0  0  0
    8.1406   -1.5488   25.6683 C   0  0  0  0  0  0  0  0  0  0  0  0
    7.8355   -2.3818   26.3076 O   0  0  0  0  0  0  0  0  0  0  0  0
    7.4477    4.7319   23.3728 C   0  0  0  0  0  0  0  0  0  0  0  0
    8.1787    5.9170   23.9306 C   0  0  0  0  0  0  0  0  0  0  0  0
    7.5940    7.2915   23.7935 N   0  0  0  0  0  0  0  0  0  0  0  0
    6.2783    7.4809   23.0984 C   0  0  0  0  0  0  0  0  0  0  0  0
    5.5474    6.2958   22.5406 C   0  0  0  0  0  0  0  0  0  0  0  0
    4.2316    6.4852   21.8455 C   0  0  0  0  0  0  0  0  0  0  0  0
    3.5007    5.3001   21.2877 C   0  0  0  0  0  0  0  0  0  0  0  0
    4.0854    3.9255   21.4248 C   0  0  0  0  0  0  0  0  0  0  0  0
    5.4011    3.7361   22.1199 C   0  0  0  0  0  0  0  0  0  0  0  0
    6.1321    4.9213   22.6777 C   0  0  0  0  0  0  0  0  0  0  0  0
   10.1890   -2.4741   24.3651 C   0  0  0  0  0  0  0  0  0  0  0  0
   11.9327   -3.4705   26.1292 N   0  0  0  0  0  0  0  0  0  0  0  0
   13.3476   -3.1561   26.5153 N   0  0  0  0  0  0  0  0  0  0  0  0
   13.8145   -2.0080   25.6705 C   0  0  0  0  0  0  0  0  0  0  0  0
   12.6881   -1.6128   24.7622 C   0  0  0  0  0  0  0  0  0  0  0  0
   11.5251   -2.5166   25.0456 C   0  0  0  0  0  0  0  0  0  0  0  0
   10.1548   -4.2333   27.8634 C   0  0  0  0  0  0  0  0  0  0  0  0
   11.0758   -4.5493   26.7225 C   0  0  0  0  0  0  0  0  0  0  0  0
 35 36  1  0  0  0
 36 30  1  0  0  0
 30 31  1  0  0  0
 31 32  2  0  0  0
 32 33  1  0  0  0
 33 34  2  0  0  0
 34 29  1  0  0  0
 29  1  1  0  0  0
  1  2  1  0  0  0
  3  2  1  0  0  0
  3  4  1  0  0  0
  4  5  2  0  0  0
  4  6  1  0  0  0
  6 19  1  0  0  0
 19 20  2  0  0  0
 20 21  1  0  0  0
 21 22  2  0  0  0
 22 23  1  0  0  0
 23 24  2  0  0  0
 24 25  1  0  0  0
 25 26  2  0  0  0
 26 27  1  0  0  0
 27 28  2  0  0  0
  6  7  1  0  0  0
  7  8  1  0  0  0
  8  9  1  0  0  0
  3 10  1  0  0  0
 10 11  2  0  0  0
 11 12  1  0  0  0
 12 13  1  0  0  0
 12 14  2  0  0  0
 14 15  1  0  0  0
 15 16  2  0  0  0
 16 17  1  0  0  0
 17 18  2  0  0  0
 34 30  1  0  0  0
 17  1  1  0  0  0
  8  3  1  0  0  0
 16 10  1  0  0  0
 28 19  1  0  0  0
 28 23  1  0  0  0
M  END
> <minimizedAffinity>
-7.46244

> <CNNscore>
0.1970300972

> <CNNaffinity>
6.2792215347

> <CNN_VS>
1.2371956110

> <CNNaffinity_variance>
0.1123624295

$$$$



 36 41  0  0  0  0  0  0  0  0999 V2000
    5.7144    2.9311   22.2749 N   0  0  0  0  0  0  0  0  0  0  0  0
    6.5711    1.7000   22.2993 C   0  0  0  0  0  0  0  0  0  0  0  0
    6.9913    1.1046   23.6103 C   0  0  0  0  0  0  0  0  0  0  0  0
    7.4873    0.3997   24.8380 C   0  0  0  0  0  0  0  0  0  0  0  0
    7.4314    0.4880   26.0485 O   0  0  0  0  0  0  0  0  0  0  0  0
    8.3049   -0.7783   24.3977 N   0  0  0  0  0  0  0  0  0  0  0  0
    8.3142   -0.8015   22.8979 C   0  0  0  0  0  0  0  0  0  0  0  0
    7.5024    0.3621   22.4113 C   0  0  0  0  0  0  0  0  0  0  0  0
    7.2465    0.7205   20.9774 C   0  0  0  0  0  0  0  0  0  0  0  0
    6.5550    1.7402   24.8970 C   0  0  0  0  0  0  0  0  0  0  0  0
    6.9752    1.1448   26.2080 C   0  0  0  0  0  0  0  0  0  0  0  0
    6.5389    1.7804   27.4947 C   0  0  0  0  0  0  0  0  0  0  0  0
    6.9591    1.1850   28.8058 F   0  0  0  0  0  0  0  0  0  0  0  0
    5.6822    3.0115   27.4703 C   0  0  0  0  0  0  0  0  0  0  0  0
    5.2620    3.6070   26.1593 C   0  0  0  0  0  0  0  0  0  0  0  0
    5.6983    2.9713   24.8727 C   0  0  0  0  0  0  0  0  0  0  0  0
    5.2781    3.5668   23.5616 C   0  0  0  0  0  0  0  0  0  0  0  0
    4.6705    4.4417   23.8089 O   0  0  0  0  0  0  0  0  0  0  0  0
    8.9924   -1.7606   25.2990 C   0  0  0  0  0  0  0  0  0  0  0  0
    8.1818   -2.7022   26.1394 C   0  0  0  0  0  0  0  0  0  0  0  0
    8.8693   -3.6845   27.0407 N   0  0  0  0  0  0  0  0  0  0  0  0
   10.3675   -3.7253   27.1016 C   0  0  0  0  0  0  0  0  0  0  0  0
   11.1782   -2.7837   26.2611 C   0  0  0  0  0  0  0  0  0  0  0  0
   12.6765   -2.8245   26.3220 C   0  0  0  0  0  0  0  0  0  0  0  0
   13.4870   -1.8829   25.4815 C   0  0  0  0  0  0  0  0  0  0  0  0
   12.7995   -0.9006   24.5802 C   0  0  0  0  0  0  0  0  0  0  0  0
   11.3013   -0.8598   24.5194 C   0  0  0  0  0  0  0  0  0  0  0  0
   10.4906   -1.8014   25.3598 C   0  0  0  0  0  0  0  0  0  0  0  0
    5.2942    3.5265   20.9638 C   0  0  0  0  0  0  0  0  0  0  0  0
    3.5141    2.1112   19.5590 N   0  0  0  0  0  0  0  0  0  0  0  0
    2.0499    2.2448   19.2616 N   0  0  0  0  0  0  0  0  0  0  0  0
    1.5486    3.4813   19.9470 C   0  0  0  0  0  0  0  0  0  0  0  0
    2.7029    4.1119   20.6681 C   0  0  0  0  0  0  0  0  0  0  0  0
    3.9176    3.2652   20.4283 C   0  0  0  0  0  0  0  0  0  0  0  0
    4.8302    0.9697   17.6316 C   0  0  0  0  0  0  0  0  0  0  0  0
    4.4163    1.0160   19.0726 C   0  0  0  0  0  0  0  0  0  0  0  0
 35 36  1  0  0  0
 36 30  1  0  0  0
 30 31  1  0  0  0
 31 32  2  0  0  0
 32 33  1  0  0  0
 33 34  2  0  0  0
 34 29  1  0  0  0
 29  1  1  0  0  0
  1  2  1  0  0  0
  3  2  1  0  0  0
  3  4  1  0  0  0
  4  5  2  0  0  0
  4  6  1  0  0  0
  6 19  1  0  0  0
 19 20  2  0  0  0
 20 21  1  0  0  0
 21 22  2  0  0  0
 22 23  1  0  0  0
 23 24  2  0  0  0
 24 25  1  0  0  0
 25 26  2  0  0  0
 26 27  1  0  0  0
 27 28  2  0  0  0
  6  7  1  0  0  0
  7  8  1  0  0  0
  8  9  1  0  0  0
  3 10  1  0  0  0
 10 11  2  0  0  0
 11 12  1  0  0  0
 12 13  1  0  0  0
 12 14  2  0  0  0
 14 15  1  0  0  0
 15 16  2  0  0  0
 16 17  1  0  0  0
 17 18  2  0  0  0
 34 30  1  0  0  0
 17  1  1  0  0  0
  8  3  1  0  0  0
 16 10  1  0  0  0
 28 19  1  0  0  0
 28 23  1  0  0  0
M  END
> <minimizedAffinity>
-8.11937

> <CNNscore>
0.1913877130

> <CNNaffinity>
6.1499214172

> <CNN_VS>
1.1770193577

> <CNNaffinity_variance>
0.0625030845

$$$$



 36 41  0  0  0  0  0  0  0  0999 V2000
    6.3529    1.1145   21.4464 N   0  0  0  0  0  0  0  0  0  0  0  0
    7.6899    1.1357   22.1261 C   0  0  0  0  0  0  0  0  0  0  0  0
    8.2515   -0.1239   22.7160 C   0  0  0  0  0  0  0  0  0  0  0  0
    8.9375   -1.2980   23.3490 C   0  0  0  0  0  0  0  0  0  0  0  0
    8.7622   -2.4845   23.5439 O   0  0  0  0  0  0  0  0  0  0  0  0
   10.2472   -0.8246   23.9062 N   0  0  0  0  0  0  0  0  0  0  0  0
   10.3707    0.6422   23.6175 C   0  0  0  0  0  0  0  0  0  0  0  0
    9.1373    1.0752   22.8819 C   0  0  0  0  0  0  0  0  0  0  0  0
    8.8416    2.4637   22.3974 C   0  0  0  0  0  0  0  0  0  0  0  0
    7.4761   -1.4048   22.6261 C   0  0  0  0  0  0  0  0  0  0  0  0
    8.0376   -2.6644   23.2160 C   0  0  0  0  0  0  0  0  0  0  0  0
    7.2622   -3.9452   23.1261 C   0  0  0  0  0  0  0  0  0  0  0  0
    7.8238   -5.2050   23.7160 F   0  0  0  0  0  0  0  0  0  0  0  0
    5.9252   -3.9665   22.4465 C   0  0  0  0  0  0  0  0  0  0  0  0
    5.3636   -2.7068   21.8566 C   0  0  0  0  0  0  0  0  0  0  0  0
    6.1390   -1.4260   21.9465 C   0  0  0  0  0  0  0  0  0  0  0  0
    5.5775   -0.1663   21.3566 C   0  0  0  0  0  0  0  0  0  0  0  0
    4.6100   -0.4400   20.9268 O   0  0  0  0  0  0  0  0  0  0  0  0
   11.2563   -1.6696   24.6258 C   0  0  0  0  0  0  0  0  0  0  0  0
   12.6924   -1.6549   24.1927 C   0  0  0  0  0  0  0  0  0  0  0  0
   13.7014   -2.4999   24.9123 N   0  0  0  0  0  0  0  0  0  0  0  0
   13.2744   -3.3596   26.0649 C   0  0  0  0  0  0  0  0  0  0  0  0
   11.8383   -3.3744   26.4979 C   0  0  0  0  0  0  0  0  0  0  0  0
   11.4113   -4.2342   27.6505 C   0  0  0  0  0  0  0  0  0  0  0  0
    9.9752   -4.2489   28.0835 C   0  0  0  0  0  0  0  0  0  0  0  0
    8.9662   -3.4039   27.3639 C   0  0  0  0  0  0  0  0  0  0  0  0
    9.3932   -2.5441   26.2114 C   0  0  0  0  0  0  0  0  0  0  0  0
   10.8293   -2.5294   25.7783 C   0  0  0  0  0  0  0  0  0  0  0  0
    5.7913    2.3742   20.8566 C   0  0  0  0  0  0  0  0  0  0  0  0
    3.8347    1.7541   19.1442 N   0  0  0  0  0  0  0  0  0  0  0  0
    2.3662    2.0485   19.0599 N   0  0  0  0  0  0  0  0  0  0  0  0
    1.9927    2.8873   20.2460 C   0  0  0  0  0  0  0  0  0  0  0  0
    3.2303    3.1114   21.0634 C   0  0  0  0  0  0  0  0  0  0  0  0
    4.3687    2.4111   20.3825 C   0  0  0  0  0  0  0  0  0  0  0  0
    5.1953    1.5977   16.9365 C   0  0  0  0  0  0  0  0  0  0  0  0
    4.6295    0.9449   18.1627 C   0  0  0  0  0  0  0  0  0  0  0  0
 35 36  1  0  0  0
 36 30  1  0  0  0
 30 31  1  0  0  0
 31 32  2  0  0  0
 32 33  1  0  0  0
 33 34  2  0  0  0
 34 29  1  0  0  0
 29  1  1  0  0  0
  1  2  1  0  0  0
  3  2  1  0  0  0
  3  4  1  0  0  0
  4  5  2  0  0  0
  4  6  1  0  0  0
  6 19  1  0  0  0
 19 20  2  0  0  0
 20 21  1  0  0  0
 21 22  2  0  0  0
 22 23  1  0  0  0
 23 24  2  0  0  0
 24 25  1  0  0  0
 25 26  2  0  0  0
 26 27  1  0  0  0
 27 28  2  0  0  0
  6  7  1  0  0  0
  7  8  1  0  0  0
  8  9  1  0  0  0
  3 10  1  0  0  0
 10 11  2  0  0  0
 11 12  1  0  0  0
 12 13  1  0  0  0
 12 14  2  0  0  0
 14 15  1  0  0  0
 15 16  2  0  0  0
 16 17  1  0  0  0
 17 18  2  0  0  0
 34 30  1  0  0  0
 17  1  1  0  0  0
  8  3  1  0  0  0
 16 10  1  0  0  0
 28 19  1  0  0  0
 28 23  1  0  0  0
M  END
> <minimizedAffinity>
-8.08753

> <CNNscore>
0.1710933596

> <CNNaffinity>
6.4013457298

> <CNN_VS>
1.0952277184

> <CNNaffinity_variance>
0.0913306028

$$$$



 36 41  0  0  0  0  0  0  0  0999 V2000
   10.8946   -0.3437   23.2680 N   0  0  0  0  0  0  0  0  0  0  0  0
    9.4475    0.0278   23.4022 C   0  0  0  0  0  0  0  0  0  0  0  0
    9.0299    1.4651   23.3029 C   0  0  0  0  0  0  0  0  0  0  0  0
    8.4651    2.8525   23.2262 C   0  0  0  0  0  0  0  0  0  0  0  0
    8.8322    3.9993   23.0633 O   0  0  0  0  0  0  0  0  0  0  0  0
    6.9797    2.7594   23.4133 N   0  0  0  0  0  0  0  0  0  0  0  0
    6.6265    1.3143   23.6055 C   0  0  0  0  0  0  0  0  0  0  0  0
    7.8936    0.5144   23.5372 C   0  0  0  0  0  0  0  0  0  0  0  0
    8.0048   -0.9748   23.6786 C   0  0  0  0  0  0  0  0  0  0  0  0
   10.0593    2.5308   23.0693 C   0  0  0  0  0  0  0  0  0  0  0  0
    9.6417    3.9681   22.9699 C   0  0  0  0  0  0  0  0  0  0  0  0
   10.6711    5.0337   22.7364 C   0  0  0  0  0  0  0  0  0  0  0  0
   10.2535    6.4711   22.6370 F   0  0  0  0  0  0  0  0  0  0  0  0
   12.1181    4.6622   22.6021 C   0  0  0  0  0  0  0  0  0  0  0  0
   12.5358    3.2250   22.7015 C   0  0  0  0  0  0  0  0  0  0  0  0
   11.5064    2.1593   22.9351 C   0  0  0  0  0  0  0  0  0  0  0  0
   11.9240    0.7220   23.0345 C   0  0  0  0  0  0  0  0  0  0  0  0
   13.0098    0.7141   22.9056 O   0  0  0  0  0  0  0  0  0  0  0  0
    6.0166    3.9094   23.4088 C   0  0  0  0  0  0  0  0  0  0  0  0
    5.3907    4.3586   22.1218 C   0  0  0  0  0  0  0  0  0  0  0  0
    4.4277    5.5086   22.1174 N   0  0  0  0  0  0  0  0  0  0  0  0
    4.0906    6.2094   23.4000 C   0  0  0  0  0  0  0  0  0  0  0  0
    4.7165    5.7602   24.6871 C   0  0  0  0  0  0  0  0  0  0  0  0
    4.3793    6.4611   25.9698 C   0  0  0  0  0  0  0  0  0  0  0  0
    5.0053    6.0118   27.2567 C   0  0  0  0  0  0  0  0  0  0  0  0
    5.9683    4.8618   27.2612 C   0  0  0  0  0  0  0  0  0  0  0  0
    6.3055    4.1610   25.9785 C   0  0  0  0  0  0  0  0  0  0  0  0
    5.6795    4.6102   24.6915 C   0  0  0  0  0  0  0  0  0  0  0  0
   11.3122   -1.7810   23.3674 C   0  0  0  0  0  0  0  0  0  0  0  0
   11.3146   -3.2314   25.6127 N   0  0  0  0  0  0  0  0  0  0  0  0
   12.2999   -3.4743   26.7174 N   0  0  0  0  0  0  0  0  0  0  0  0
   13.5394   -2.6857   26.4148 C   0  0  0  0  0  0  0  0  0  0  0  0
   13.3203   -1.9554   25.1230 C   0  0  0  0  0  0  0  0  0  0  0  0
   11.9453   -2.2926   24.6273 C   0  0  0  0  0  0  0  0  0  0  0  0
    8.8279   -3.2875   26.3631 C   0  0  0  0  0  0  0  0  0  0  0  0
    9.9401   -3.8234   25.5113 C   0  0  0  0  0  0  0  0  0  0  0  0
 35 36  1  0  0  0
 36 30  1  0  0  0
 30 31  1  0  0  0
 31 32  2  0  0  0
 32 33  1  0  0  0
 33 34  2  0  0  0
 34 29  1  0  0  0
 29  1  1  0  0  0
  1  2  1  0  0  0
  3  2  1  0  0  0
  3  4  1  0  0  0
  4  5  2  0  0  0
  4  6  1  0  0  0
  6 19  1  0  0  0
 19 20  2  0  0  0
 20 21  1  0  0  0
 21 22  2  0  0  0
 22 23  1  0  0  0
 23 24  2  0  0  0
 24 25  1  0  0  0
 25 26  2  0  0  0
 26 27  1  0  0  0
 27 28  2  0  0  0
  6  7  1  0  0  0
  7  8  1  0  0  0
  8  9  1  0  0  0
  3 10  1  0  0  0
 10 11  2  0  0  0
 11 12  1  0  0  0
 12 13  1  0  0  0
 12 14  2  0  0  0
 14 15  1  0  0  0
 15 16  2  0  0  0
 16 17  1  0  0  0
 17 18  2  0  0  0
 34 30  1  0  0  0
 17  1  1  0  0  0
  8  3  1  0  0  0
 16 10  1  0  0  0
 28 19  1  0  0  0
 28 23  1  0  0  0
M  END
> <minimizedAffinity>
-7.92519

> <CNNscore>
0.1709486991

> <CNNaffinity>
6.3479051590

> <CNN_VS>
1.0851660967

> <CNNaffinity_variance>
0.1232072338

$$$$
