


 36 41  0  0  0  0  0  0  0  0999 V2000
   -8.1744   -1.7439  -23.9299 N   0  0  0  0  0  0  0  0  0  0  0  0
   -8.3942   -0.2661  -24.0636 C   0  0  0  0  0  0  0  0  0  0  0  0
   -9.7635    0.3102  -23.8571 C   0  0  0  0  0  0  0  0  0  0  0  0
  -11.0693    1.0270  -23.6803 C   0  0  0  0  0  0  0  0  0  0  0  0
  -12.2321    0.7919  -23.4177 O   0  0  0  0  0  0  0  0  0  0  0  0
  -10.8289    2.4905  -23.9050 N   0  0  0  0  0  0  0  0  0  0  0  0
   -9.3745    2.6782  -24.2207 C   0  0  0  0  0  0  0  0  0  0  0  0
   -8.7161    1.3307  -24.1911 C   0  0  0  0  0  0  0  0  0  0  0  0
   -7.2651    1.0526  -24.4500 C   0  0  0  0  0  0  0  0  0  0  0  0
  -10.9132   -0.5912  -23.5168 C   0  0  0  0  0  0  0  0  0  0  0  0
  -12.2826   -0.0149  -23.3103 C   0  0  0  0  0  0  0  0  0  0  0  0
  -13.4321   -0.9163  -22.9701 C   0  0  0  0  0  0  0  0  0  0  0  0
  -14.8016   -0.3400  -22.7636 F   0  0  0  0  0  0  0  0  0  0  0  0
  -13.2124   -2.3941  -22.8364 C   0  0  0  0  0  0  0  0  0  0  0  0
  -11.8431   -2.9704  -23.0429 C   0  0  0  0  0  0  0  0  0  0  0  0
  -10.6935   -2.0690  -23.3831 C   0  0  0  0  0  0  0  0  0  0  0  0
   -9.3240   -2.6453  -23.5897 C   0  0  0  0  0  0  0  0  0  0  0  0
   -9.4251   -3.7237  -23.4394 O   0  0  0  0  0  0  0  0  0  0  0  0
  -11.8615    3.5757  -23.8276 C   0  0  0  0  0  0  0  0  0  0  0  0
  -12.6371    3.7840  -22.5607 C   0  0  0  0  0  0  0  0  0  0  0  0
  -13.6698    4.8692  -22.4834 N   0  0  0  0  0  0  0  0  0  0  0  0
  -13.9268    5.7461  -23.6729 C   0  0  0  0  0  0  0  0  0  0  0  0
  -13.1512    5.5377  -24.9398 C   0  0  0  0  0  0  0  0  0  0  0  0
  -13.4082    6.4147  -26.1294 C   0  0  0  0  0  0  0  0  0  0  0  0
  -12.6326    6.2063  -27.3962 C   0  0  0  0  0  0  0  0  0  0  0  0
  -11.5999    5.1211  -27.4736 C   0  0  0  0  0  0  0  0  0  0  0  0
  -11.3429    4.2442  -26.2841 C   0  0  0  0  0  0  0  0  0  0  0  0
  -12.1185    4.4525  -25.0172 C   0  0  0  0  0  0  0  0  0  0  0  0
   -6.8050   -2.3202  -24.1364 C   0  0  0  0  0  0  0  0  0  0  0  0
   -6.4236   -4.9619  -24.2822 N   0  0  0  0  0  0  0  0  0  0  0  0
   -6.0261   -6.0315  -23.3085 N   0  0  0  0  0  0  0  0  0  0  0  0
   -5.8130   -5.3854  -21.9716 C   0  0  0  0  0  0  0  0  0  0  0  0
   -6.0789   -3.9165  -22.1191 C   0  0  0  0  0  0  0  0  0  0  0  0
   -6.4562   -3.6547  -23.5470 C   0  0  0  0  0  0  0  0  0  0  0  0
   -7.8943   -6.0231  -26.1425 C   0  0  0  0  0  0  0  0  0  0  0  0
   -6.7340   -5.1640  -25.7357 C   0  0  0  0  0  0  0  0  0  0  0  0
 35 36  1  0  0  0
 36 30  1  0  0  0
 30 31  1  0  0  0
 31 32  2  0  0  0
 32 33  1  0  0  0
 33 34  2  0  0  0
 34 29  1  0  0  0
 29  1  1  0  0  0
  1  2  1  0  0  0
  3  2  1  0  0  0
  3  4  1  0  0  0
  4  5  2  0  0  0
  4  6  1  0  0  0
  6 19  1  0  0  0
 19 20  2  0  0  0
 20 21  1  0  0  0
 21 22  2  0  0  0
 22 23  1  0  0  0
 23 24  2  0  0  0
 24 25  1  0  0  0
 25 26  2  0  0  0
 26 27  1  0  0  0
 27 28  2  0  0  0
  6  7  1  0  0  0
  7  8  1  0  0  0
  8  9  1  0  0  0
  3 10  1  0  0  0
 10 11  2  0  0  0
 11 12  1  0  0  0
 12 13  1  0  0  0
 12 14  2  0  0  0
 14 15  1  0  0  0
 15 16  2  0  0  0
 16 17  1  0  0  0
 17 18  2  0  0  0
 34 30  1  0  0  0
 17  1  1  0  0  0
  8  3  1  0  0  0
 16 10  1  0  0  0
 28 19  1  0  0  0
 28 23  1  0  0  0
M  END
> <minimizedAffinity>
-7.62478

> <CNNscore>
0.7623407841

> <CNNaffinity>
6.9086127281

> <CNN_VS>
5.2667174339

> <CNNaffinity_variance>
0.0351637304

$$$$



 36 41  0  0  0  0  0  0  0  0999 V2000
   -7.6721   -1.7284  -23.1917 N   0  0  0  0  0  0  0  0  0  0  0  0
   -7.6536   -0.3544  -23.7931 C   0  0  0  0  0  0  0  0  0  0  0  0
   -8.9405    0.3816  -24.0218 C   0  0  0  0  0  0  0  0  0  0  0  0
  -10.1404    1.2349  -24.3081 C   0  0  0  0  0  0  0  0  0  0  0  0
  -11.3508    1.2030  -24.2069 O   0  0  0  0  0  0  0  0  0  0  0  0
   -9.6604    2.5242  -24.9058 N   0  0  0  0  0  0  0  0  0  0  0  0
   -8.1638    2.4677  -24.9890 C   0  0  0  0  0  0  0  0  0  0  0  0
   -7.7189    1.1435  -24.4427 C   0  0  0  0  0  0  0  0  0  0  0  0
   -6.3012    0.6652  -24.3360 C   0  0  0  0  0  0  0  0  0  0  0  0
  -10.2459   -0.2565  -23.6490 C   0  0  0  0  0  0  0  0  0  0  0  0
  -11.5327    0.4794  -23.8777 C   0  0  0  0  0  0  0  0  0  0  0  0
  -12.8380   -0.1586  -23.5049 C   0  0  0  0  0  0  0  0  0  0  0  0
  -14.1250    0.5773  -23.7336 F   0  0  0  0  0  0  0  0  0  0  0  0
  -12.8565   -1.5326  -22.9034 C   0  0  0  0  0  0  0  0  0  0  0  0
  -11.5696   -2.2686  -22.6747 C   0  0  0  0  0  0  0  0  0  0  0  0
  -10.2643   -1.6305  -23.0475 C   0  0  0  0  0  0  0  0  0  0  0  0
   -8.9774   -2.3664  -22.8189 C   0  0  0  0  0  0  0  0  0  0  0  0
   -9.2544   -3.3284  -22.3787 O   0  0  0  0  0  0  0  0  0  0  0  0
  -10.5252    3.6690  -25.3435 C   0  0  0  0  0  0  0  0  0  0  0  0
  -10.3432    4.2681  -26.7066 C   0  0  0  0  0  0  0  0  0  0  0  0
  -11.2080    5.4129  -27.1443 N   0  0  0  0  0  0  0  0  0  0  0  0
  -12.2548    5.9586  -26.2189 C   0  0  0  0  0  0  0  0  0  0  0  0
  -12.4369    5.3594  -24.8559 C   0  0  0  0  0  0  0  0  0  0  0  0
  -13.4838    5.9051  -23.9305 C   0  0  0  0  0  0  0  0  0  0  0  0
  -13.6658    5.3059  -22.5674 C   0  0  0  0  0  0  0  0  0  0  0  0
  -12.8010    4.1611  -22.1297 C   0  0  0  0  0  0  0  0  0  0  0  0
  -11.7542    3.6155  -23.0551 C   0  0  0  0  0  0  0  0  0  0  0  0
  -11.5721    4.2146  -24.4182 C   0  0  0  0  0  0  0  0  0  0  0  0
   -6.3851   -2.4643  -22.9630 C   0  0  0  0  0  0  0  0  0  0  0  0
   -5.6160   -4.1700  -21.0539 N   0  0  0  0  0  0  0  0  0  0  0  0
   -5.2344   -4.0427  -19.6088 N   0  0  0  0  0  0  0  0  0  0  0  0
   -5.3339   -2.5950  -19.2289 C   0  0  0  0  0  0  0  0  0  0  0  0
   -5.7771   -1.8276  -20.4391 C   0  0  0  0  0  0  0  0  0  0  0  0
   -5.9515   -2.8009  -21.5670 C   0  0  0  0  0  0  0  0  0  0  0  0
   -5.6879   -6.7656  -21.1403 C   0  0  0  0  0  0  0  0  0  0  0  0
   -5.6553   -5.4428  -21.8466 C   0  0  0  0  0  0  0  0  0  0  0  0
 35 36  1  0  0  0
 36 30  1  0  0  0
 30 31  1  0  0  0
 31 32  2  0  0  0
 32 33  1  0  0  0
 33 34  2  0  0  0
 34 29  1  0  0  0
 29  1  1  0  0  0
  1  2  1  0  0  0
  3  2  1  0  0  0
  3  4  1  0  0  0
  4  5  2  0  0  0
  4  6  1  0  0  0
  6 19  1  0  0  0
 19 20  2  0  0  0
 20 21  1  0  0  0
 21 22  2  0  0  0
 22 23  1  0  0  0
 23 24  2  0  0  0
 24 25  1  0  0  0
 25 26  2  0  0  0
 26 27  1  0  0  0
 27 28  2  0  0  0
  6  7  1  0  0  0
  7  8  1  0  0  0
  8  9  1  0  0  0
  3 10  1  0  0  0
 10 11  2  0  0  0
 11 12  1  0  0  0
 12 13  1  0  0  0
 12 14  2  0  0  0
 14 15  1  0  0  0
 15 16  2  0  0  0
 16 17  1  0  0  0
 17 18  2  0  0  0
 34 30  1  0  0  0
 17  1  1  0  0  0
  8  3  1  0  0  0
 16 10  1  0  0  0
 28 19  1  0  0  0
 28 23  1  0  0  0
M  END
> <minimizedAffinity>
-8.50897

> <CNNscore>
0.5441033840

> <CNNaffinity>
6.4211301804

> <CNN_VS>
3.4937586784

> <CNNaffinity_variance>
0.5678914785

$$$$



 36 41  0  0  0  0  0  0  0  0999 V2000
   -7.5753   -1.0083  -22.8607 N   0  0  0  0  0  0  0  0  0  0  0  0
   -7.8432    0.4388  -23.1507 C   0  0  0  0  0  0  0  0  0  0  0  0
   -9.2544    0.9255  -23.2978 C   0  0  0  0  0  0  0  0  0  0  0  0
  -10.6051    1.5547  -23.4702 C   0  0  0  0  0  0  0  0  0  0  0  0
  -11.7817    1.2520  -23.4558 O   0  0  0  0  0  0  0  0  0  0  0  0
  -10.4042    3.0156  -23.7453 N   0  0  0  0  0  0  0  0  0  0  0  0
   -8.9293    3.2891  -23.7428 C   0  0  0  0  0  0  0  0  0  0  0  0
   -8.2188    1.9974  -23.4662 C   0  0  0  0  0  0  0  0  0  0  0  0
   -6.7333    1.8104  -23.3743 C   0  0  0  0  0  0  0  0  0  0  0  0
  -10.3978   -0.0350  -23.1549 C   0  0  0  0  0  0  0  0  0  0  0  0
  -11.8089    0.4516  -23.3020 C   0  0  0  0  0  0  0  0  0  0  0  0
  -12.9522   -0.5088  -23.1592 C   0  0  0  0  0  0  0  0  0  0  0  0
  -14.3635   -0.0222  -23.3063 F   0  0  0  0  0  0  0  0  0  0  0  0
  -12.6843   -1.9559  -22.8692 C   0  0  0  0  0  0  0  0  0  0  0  0
  -11.2731   -2.4426  -22.7221 C   0  0  0  0  0  0  0  0  0  0  0  0
  -10.1298   -1.4821  -22.8649 C   0  0  0  0  0  0  0  0  0  0  0  0
   -8.7185   -1.9688  -22.7178 C   0  0  0  0  0  0  0  0  0  0  0  0
   -8.7892   -3.0406  -22.5131 O   0  0  0  0  0  0  0  0  0  0  0  0
  -11.4878    4.0255  -23.9813 C   0  0  0  0  0  0  0  0  0  0  0  0
  -12.3432    4.4886  -22.8394 C   0  0  0  0  0  0  0  0  0  0  0  0
  -13.4268    5.4985  -23.0754 N   0  0  0  0  0  0  0  0  0  0  0  0
  -13.6552    6.0453  -24.4534 C   0  0  0  0  0  0  0  0  0  0  0  0
  -12.7999    5.5822  -25.5953 C   0  0  0  0  0  0  0  0  0  0  0  0
  -13.0283    6.1290  -26.9734 C   0  0  0  0  0  0  0  0  0  0  0  0
  -12.1729    5.6658  -28.1153 C   0  0  0  0  0  0  0  0  0  0  0  0
  -11.0892    4.6559  -27.8792 C   0  0  0  0  0  0  0  0  0  0  0  0
  -10.8609    4.1091  -26.5012 C   0  0  0  0  0  0  0  0  0  0  0  0
  -11.7162    4.5723  -25.3593 C   0  0  0  0  0  0  0  0  0  0  0  0
   -6.1640   -1.4949  -22.7135 C   0  0  0  0  0  0  0  0  0  0  0  0
   -5.3261   -2.0763  -20.2427 N   0  0  0  0  0  0  0  0  0  0  0  0
   -5.0964   -3.3419  -19.4710 N   0  0  0  0  0  0  0  0  0  0  0  0
   -5.4393   -4.4978  -20.3634 C   0  0  0  0  0  0  0  0  0  0  0  0
   -5.8810   -3.9466  -21.6867 C   0  0  0  0  0  0  0  0  0  0  0  0
   -5.8110   -2.4500  -21.6121 C   0  0  0  0  0  0  0  0  0  0  0  0
   -5.6682   -0.2730  -18.4039 C   0  0  0  0  0  0  0  0  0  0  0  0
   -5.1090   -0.6819  -19.7343 C   0  0  0  0  0  0  0  0  0  0  0  0
 35 36  1  0  0  0
 36 30  1  0  0  0
 30 31  1  0  0  0
 31 32  2  0  0  0
 32 33  1  0  0  0
 33 34  2  0  0  0
 34 29  1  0  0  0
 29  1  1  0  0  0
  1  2  1  0  0  0
  3  2  1  0  0  0
  3  4  1  0  0  0
  4  5  2  0  0  0
  4  6  1  0  0  0
  6 19  1  0  0  0
 19 20  2  0  0  0
 20 21  1  0  0  0
 21 22  2  0  0  0
 22 23  1  0  0  0
 23 24  2  0  0  0
 24 25  1  0  0  0
 25 26  2  0  0  0
 26 27  1  0  0  0
 27 28  2  0  0  0
  6  7  1  0  0  0
  7  8  1  0  0  0
  8  9  1  0  0  0
  3 10  1  0  0  0
 10 11  2  0  0  0
 11 12  1  0  0  0
 12 13  1  0  0  0
 12 14  2  0  0  0
 14 15  1  0  0  0
 15 16  2  0  0  0
 16 17  1  0  0  0
 17 18  2  0  0  0
 34 30  1  0  0  0
 17  1  1  0  0  0
  8  3  1  0  0  0
 16 10  1  0  0  0
 28 19  1  0  0  0
 28 23  1  0  0  0
M  END
> <minimizedAffinity>
-8.17152

> <CNNscore>
0.5335875750

> <CNNaffinity>
6.5046663284

> <CNN_VS>
3.4708092213

> <CNNaffinity_variance>
0.1734583676

$$$$



 36 41  0  0  0  0  0  0  0  0999 V2000
   -9.7429    2.5961  -24.2784 N   0  0  0  0  0  0  0  0  0  0  0  0
   -8.7565    1.4742  -24.4135 C   0  0  0  0  0  0  0  0  0  0  0  0
   -9.1876    0.0612  -24.1541 C   0  0  0  0  0  0  0  0  0  0  0  0
   -9.4713   -1.3943  -23.9281 C   0  0  0  0  0  0  0  0  0  0  0  0
  -10.3896   -2.1260  -23.6154 O   0  0  0  0  0  0  0  0  0  0  0  0
   -8.2033   -2.1573  -24.1731 N   0  0  0  0  0  0  0  0  0  0  0  0
   -7.1359   -1.1733  -24.5507 C   0  0  0  0  0  0  0  0  0  0  0  0
   -7.7443    0.1977  -24.5389 C   0  0  0  0  0  0  0  0  0  0  0  0
   -7.0339    1.4802  -24.8562 C   0  0  0  0  0  0  0  0  0  0  0  0
  -10.6053   -0.2300  -23.7596 C   0  0  0  0  0  0  0  0  0  0  0  0
  -11.0364   -1.6431  -23.5002 C   0  0  0  0  0  0  0  0  0  0  0  0
  -12.4540   -1.9342  -23.1058 C   0  0  0  0  0  0  0  0  0  0  0  0
  -12.8853   -3.3473  -22.8463 F   0  0  0  0  0  0  0  0  0  0  0  0
  -13.4405   -0.8123  -22.9707 C   0  0  0  0  0  0  0  0  0  0  0  0
  -13.0093    0.6008  -23.2301 C   0  0  0  0  0  0  0  0  0  0  0  0
  -11.5917    0.8919  -23.6245 C   0  0  0  0  0  0  0  0  0  0  0  0
  -11.1605    2.3050  -23.8840 C   0  0  0  0  0  0  0  0  0  0  0  0
  -12.0465    2.9250  -23.7218 O   0  0  0  0  0  0  0  0  0  0  0  0
   -8.0327   -3.6433  -24.0605 C   0  0  0  0  0  0  0  0  0  0  0  0
   -7.4331   -4.2376  -22.8206 C   0  0  0  0  0  0  0  0  0  0  0  0
   -7.2625   -5.7235  -22.7080 N   0  0  0  0  0  0  0  0  0  0  0  0
   -7.6915   -6.6153  -23.8352 C   0  0  0  0  0  0  0  0  0  0  0  0
   -8.2912   -6.0210  -25.0751 C   0  0  0  0  0  0  0  0  0  0  0  0
   -8.7202   -6.9128  -26.2024 C   0  0  0  0  0  0  0  0  0  0  0  0
   -9.3199   -6.3185  -27.4422 C   0  0  0  0  0  0  0  0  0  0  0  0
   -9.4905   -4.8325  -27.5549 C   0  0  0  0  0  0  0  0  0  0  0  0
   -9.0614   -3.9407  -26.4276 C   0  0  0  0  0  0  0  0  0  0  0  0
   -8.4618   -4.5350  -25.1878 C   0  0  0  0  0  0  0  0  0  0  0  0
   -9.3117    4.0093  -24.5378 C   0  0  0  0  0  0  0  0  0  0  0  0
  -10.6128    5.3522  -26.4481 N   0  0  0  0  0  0  0  0  0  0  0  0
  -10.3087    5.7443  -27.8637 N   0  0  0  0  0  0  0  0  0  0  0  0
   -8.9437    5.2248  -28.2056 C   0  0  0  0  0  0  0  0  0  0  0  0
   -8.4041    4.5117  -27.0014 C   0  0  0  0  0  0  0  0  0  0  0  0
   -9.4356    4.5903  -25.9152 C   0  0  0  0  0  0  0  0  0  0  0  0
  -13.2055    5.3109  -26.2863 C   0  0  0  0  0  0  0  0  0  0  0  0
  -11.8727    5.6666  -25.6973 C   0  0  0  0  0  0  0  0  0  0  0  0
 35 36  1  0  0  0
 36 30  1  0  0  0
 30 31  1  0  0  0
 31 32  2  0  0  0
 32 33  1  0  0  0
 33 34  2  0  0  0
 34 29  1  0  0  0
 29  1  1  0  0  0
  1  2  1  0  0  0
  3  2  1  0  0  0
  3  4  1  0  0  0
  4  5  2  0  0  0
  4  6  1  0  0  0
  6 19  1  0  0  0
 19 20  2  0  0  0
 20 21  1  0  0  0
 21 22  2  0  0  0
 22 23  1  0  0  0
 23 24  2  0  0  0
 24 25  1  0  0  0
 25 26  2  0  0  0
 26 27  1  0  0  0
 27 28  2  0  0  0
  6  7  1  0  0  0
  7  8  1  0  0  0
  8  9  1  0  0  0
  3 10  1  0  0  0
 10 11  2  0  0  0
 11 12  1  0  0  0
 12 13  1  0  0  0
 12 14  2  0  0  0
 14 15  1  0  0  0
 15 16  2  0  0  0
 16 17  1  0  0  0
 17 18  2  0  0  0
 34 30  1  0  0  0
 17  1  1  0  0  0
  8  3  1  0  0  0
 16 10  1  0  0  0
 28 19  1  0  0  0
 28 23  1  0  0  0
M  END
> <minimizedAffinity>
-7.49235

> <CNNscore>
0.5283830762

> <CNNaffinity>
6.7149100304

> <CNN_VS>
3.5480449200

> <CNNaffinity_variance>
0.1075225249

$$$$



 36 41  0  0  0  0  0  0  0  0999 V2000
   -7.7696   -2.1077  -23.2915 N   0  0  0  0  0  0  0  0  0  0  0  0
   -7.7074   -0.7277  -23.8760 C   0  0  0  0  0  0  0  0  0  0  0  0
   -8.9652    0.0710  -24.0488 C   0  0  0  0  0  0  0  0  0  0  0  0
  -10.1327    0.9838  -24.2807 C   0  0  0  0  0  0  0  0  0  0  0  0
  -11.3389    1.0073  -24.1363 O   0  0  0  0  0  0  0  0  0  0  0  0
   -9.6136    2.2575  -24.8792 N   0  0  0  0  0  0  0  0  0  0  0  0
   -8.1252    2.1320  -25.0171 C   0  0  0  0  0  0  0  0  0  0  0  0
   -7.7245    0.7807  -24.5039 C   0  0  0  0  0  0  0  0  0  0  0  0
   -6.3282    0.2349  -24.4544 C   0  0  0  0  0  0  0  0  0  0  0  0
  -10.2853   -0.5103  -23.6371 C   0  0  0  0  0  0  0  0  0  0  0  0
  -11.5431    0.2884  -23.8099 C   0  0  0  0  0  0  0  0  0  0  0  0
  -12.8632   -0.2929  -23.3983 C   0  0  0  0  0  0  0  0  0  0  0  0
  -14.1211    0.5058  -23.5710 F   0  0  0  0  0  0  0  0  0  0  0  0
  -12.9254   -1.6730  -22.8138 C   0  0  0  0  0  0  0  0  0  0  0  0
  -11.6676   -2.4717  -22.6410 C   0  0  0  0  0  0  0  0  0  0  0  0
  -10.3475   -1.8903  -23.0527 C   0  0  0  0  0  0  0  0  0  0  0  0
   -9.0896   -2.6891  -22.8799 C   0  0  0  0  0  0  0  0  0  0  0  0
   -9.3962   -3.6431  -22.4422 O   0  0  0  0  0  0  0  0  0  0  0  0
  -10.4381    3.4478  -25.2709 C   0  0  0  0  0  0  0  0  0  0  0  0
  -10.2179    4.1082  -26.5996 C   0  0  0  0  0  0  0  0  0  0  0  0
  -11.0424    5.2985  -26.9913 N   0  0  0  0  0  0  0  0  0  0  0  0
  -12.0872    5.8282  -26.0544 C   0  0  0  0  0  0  0  0  0  0  0  0
  -12.3074    5.1678  -24.7258 C   0  0  0  0  0  0  0  0  0  0  0  0
  -13.3522    5.6976  -23.7889 C   0  0  0  0  0  0  0  0  0  0  0  0
  -13.5724    5.0370  -22.4602 C   0  0  0  0  0  0  0  0  0  0  0  0
  -12.7479    3.8468  -22.0685 C   0  0  0  0  0  0  0  0  0  0  0  0
  -11.7031    3.3170  -23.0054 C   0  0  0  0  0  0  0  0  0  0  0  0
  -11.4829    3.9775  -24.3340 C   0  0  0  0  0  0  0  0  0  0  0  0
   -6.5117   -2.9065  -23.1187 C   0  0  0  0  0  0  0  0  0  0  0  0
   -6.3299   -5.4986  -23.7460 N   0  0  0  0  0  0  0  0  0  0  0  0
   -5.9230   -6.2682  -24.9675 N   0  0  0  0  0  0  0  0  0  0  0  0
   -5.5476   -5.2817  -26.0333 C   0  0  0  0  0  0  0  0  0  0  0  0
   -5.7224   -3.9023  -25.4704 C   0  0  0  0  0  0  0  0  0  0  0  0
   -6.2059   -4.0363  -24.0568 C   0  0  0  0  0  0  0  0  0  0  0  0
   -5.7686   -6.5558  -21.4401 C   0  0  0  0  0  0  0  0  0  0  0  0
   -6.7814   -6.0877  -22.4425 C   0  0  0  0  0  0  0  0  0  0  0  0
 35 36  1  0  0  0
 36 30  1  0  0  0
 30 31  1  0  0  0
 31 32  2  0  0  0
 32 33  1  0  0  0
 33 34  2  0  0  0
 34 29  1  0  0  0
 29  1  1  0  0  0
  1  2  1  0  0  0
  3  2  1  0  0  0
  3  4  1  0  0  0
  4  5  2  0  0  0
  4  6  1  0  0  0
  6 19  1  0  0  0
 19 20  2  0  0  0
 20 21  1  0  0  0
 21 22  2  0  0  0
 22 23  1  0  0  0
 23 24  2  0  0  0
 24 25  1  0  0  0
 25 26  2  0  0  0
 26 27  1  0  0  0
 27 28  2  0  0  0
  6  7  1  0  0  0
  7  8  1  0  0  0
  8  9  1  0  0  0
  3 10  1  0  0  0
 10 11  2  0  0  0
 11 12  1  0  0  0
 12 13  1  0  0  0
 12 14  2  0  0  0
 14 15  1  0  0  0
 15 16  2  0  0  0
 16 17  1  0  0  0
 17 18  2  0  0  0
 34 30  1  0  0  0
 17  1  1  0  0  0
  8  3  1  0  0  0
 16 10  1  0  0  0
 28 19  1  0  0  0
 28 23  1  0  0  0
M  END
> <minimizedAffinity>
-7.66882

> <CNNscore>
0.4239202440

> <CNNaffinity>
6.4077019691

> <CNN_VS>
2.7163546085

> <CNNaffinity_variance>
0.2916256189

$$$$



 36 41  0  0  0  0  0  0  0  0999 V2000
   -8.5614   -2.4503  -22.9550 N   0  0  0  0  0  0  0  0  0  0  0  0
   -7.7976   -1.1694  -23.1160 C   0  0  0  0  0  0  0  0  0  0  0  0
   -8.5042    0.0731  -23.5709 C   0  0  0  0  0  0  0  0  0  0  0  0
   -9.0720    1.3884  -24.0152 C   0  0  0  0  0  0  0  0  0  0  0  0
  -10.1308    1.8778  -24.3555 O   0  0  0  0  0  0  0  0  0  0  0  0
   -7.9572    2.3918  -24.0347 N   0  0  0  0  0  0  0  0  0  0  0  0
   -6.7003    1.6966  -23.6023 C   0  0  0  0  0  0  0  0  0  0  0  0
   -7.0384    0.2636  -23.3157 C   0  0  0  0  0  0  0  0  0  0  0  0
   -6.0790   -0.7933  -22.8547 C   0  0  0  0  0  0  0  0  0  0  0  0
   -9.9746    0.0347  -23.8648 C   0  0  0  0  0  0  0  0  0  0  0  0
  -10.6812    1.2772  -24.3197 C   0  0  0  0  0  0  0  0  0  0  0  0
  -12.1516    1.2388  -24.6137 C   0  0  0  0  0  0  0  0  0  0  0  0
  -12.8582    2.4813  -25.0686 F   0  0  0  0  0  0  0  0  0  0  0  0
  -12.9154   -0.0421  -24.4527 C   0  0  0  0  0  0  0  0  0  0  0  0
  -12.2088   -1.2846  -23.9979 C   0  0  0  0  0  0  0  0  0  0  0  0
  -10.7384   -1.2461  -23.7039 C   0  0  0  0  0  0  0  0  0  0  0  0
  -10.0318   -2.4887  -23.2490 C   0  0  0  0  0  0  0  0  0  0  0  0
  -10.7938   -3.2721  -23.2114 O   0  0  0  0  0  0  0  0  0  0  0  0
   -8.0781    3.8367  -24.4190 C   0  0  0  0  0  0  0  0  0  0  0  0
   -7.4337    4.8944  -23.5728 C   0  0  0  0  0  0  0  0  0  0  0  0
   -7.5545    6.3392  -23.9571 N   0  0  0  0  0  0  0  0  0  0  0  0
   -8.3198    6.7264  -25.1877 C   0  0  0  0  0  0  0  0  0  0  0  0
   -8.9642    5.6688  -26.0340 C   0  0  0  0  0  0  0  0  0  0  0  0
   -9.7295    6.0560  -27.2647 C   0  0  0  0  0  0  0  0  0  0  0  0
  -10.3739    4.9983  -28.1108 C   0  0  0  0  0  0  0  0  0  0  0  0
  -10.2530    3.5534  -27.7265 C   0  0  0  0  0  0  0  0  0  0  0  0
   -9.4877    3.1662  -26.4959 C   0  0  0  0  0  0  0  0  0  0  0  0
   -8.8433    4.2239  -25.6496 C   0  0  0  0  0  0  0  0  0  0  0  0
   -7.8548   -3.6928  -22.5001 C   0  0  0  0  0  0  0  0  0  0  0  0
   -7.1318   -4.4322  -24.9650 N   0  0  0  0  0  0  0  0  0  0  0  0
   -6.1156   -5.3779  -25.5334 N   0  0  0  0  0  0  0  0  0  0  0  0
   -5.3809   -6.0114  -24.3894 C   0  0  0  0  0  0  0  0  0  0  0  0
   -5.9430   -5.4573  -23.1139 C   0  0  0  0  0  0  0  0  0  0  0  0
   -7.0251   -4.4813  -23.4695 C   0  0  0  0  0  0  0  0  0  0  0  0
   -9.1966   -4.2317  -26.5291 C   0  0  0  0  0  0  0  0  0  0  0  0
   -8.0869   -3.5860  -25.7535 C   0  0  0  0  0  0  0  0  0  0  0  0
 35 36  1  0  0  0
 36 30  1  0  0  0
 30 31  1  0  0  0
 31 32  2  0  0  0
 32 33  1  0  0  0
 33 34  2  0  0  0
 34 29  1  0  0  0
 29  1  1  0  0  0
  1  2  1  0  0  0
  3  2  1  0  0  0
  3  4  1  0  0  0
  4  5  2  0  0  0
  4  6  1  0  0  0
  6 19  1  0  0  0
 19 20  2  0  0  0
 20 21  1  0  0  0
 21 22  2  0  0  0
 22 23  1  0  0  0
 23 24  2  0  0  0
 24 25  1  0  0  0
 25 26  2  0  0  0
 26 27  1  0  0  0
 27 28  2  0  0  0
  6  7  1  0  0  0
  7  8  1  0  0  0
  8  9  1  0  0  0
  3 10  1  0  0  0
 10 11  2  0  0  0
 11 12  1  0  0  0
 12 13  1  0  0  0
 12 14  2  0  0  0
 14 15  1  0  0  0
 15 16  2  0  0  0
 16 17  1  0  0  0
 17 18  2  0  0  0
 34 30  1  0  0  0
 17  1  1  0  0  0
  8  3  1  0  0  0
 16 10  1  0  0  0
 28 19  1  0  0  0
 28 23  1  0  0  0
M  END
> <minimizedAffinity>
-3.69444

> <CNNscore>
0.3478087187

> <CNNaffinity>
6.2587113380

> <CNN_VS>
2.1768343449

> <CNNaffinity_variance>
0.4586828649

$$$$



 36 41  0  0  0  0  0  0  0  0999 V2000
   -9.4151    2.5795  -24.3472 N   0  0  0  0  0  0  0  0  0  0  0  0
   -8.4737    1.4189  -24.4762 C   0  0  0  0  0  0  0  0  0  0  0  0
   -8.9590    0.0257  -24.2050 C   0  0  0  0  0  0  0  0  0  0  0  0
   -9.2987   -1.4158  -23.9672 C   0  0  0  0  0  0  0  0  0  0  0  0
  -10.2439   -2.1087  -23.6466 O   0  0  0  0  0  0  0  0  0  0  0  0
   -8.0622   -2.2296  -24.2097 N   0  0  0  0  0  0  0  0  0  0  0  0
   -6.9582   -1.2910  -24.5974 C   0  0  0  0  0  0  0  0  0  0  0  0
   -7.5125    0.1029  -24.5945 C   0  0  0  0  0  0  0  0  0  0  0  0
   -6.7535    1.3542  -24.9234 C   0  0  0  0  0  0  0  0  0  0  0  0
  -10.3858   -0.2068  -23.8047 C   0  0  0  0  0  0  0  0  0  0  0  0
  -10.8711   -1.6000  -23.5334 C   0  0  0  0  0  0  0  0  0  0  0  0
  -12.2978   -1.8325  -23.1332 C   0  0  0  0  0  0  0  0  0  0  0  0
  -12.7832   -3.2257  -22.8619 F   0  0  0  0  0  0  0  0  0  0  0  0
  -13.2393   -0.6719  -23.0041 C   0  0  0  0  0  0  0  0  0  0  0  0
  -12.7540    0.7212  -23.2753 C   0  0  0  0  0  0  0  0  0  0  0  0
  -11.3272    0.9538  -23.6756 C   0  0  0  0  0  0  0  0  0  0  0  0
  -10.8419    2.3470  -23.9469 C   0  0  0  0  0  0  0  0  0  0  0  0
  -11.7025    3.0023  -23.7872 O   0  0  0  0  0  0  0  0  0  0  0  0
   -7.9494   -3.7202  -24.0862 C   0  0  0  0  0  0  0  0  0  0  0  0
   -7.3748   -4.3283  -22.8412 C   0  0  0  0  0  0  0  0  0  0  0  0
   -7.2621   -5.8190  -22.7177 N   0  0  0  0  0  0  0  0  0  0  0  0
   -7.7239   -6.7015  -23.8392 C   0  0  0  0  0  0  0  0  0  0  0  0
   -8.2986   -6.0934  -25.0842 C   0  0  0  0  0  0  0  0  0  0  0  0
   -8.7605   -6.9760  -26.2058 C   0  0  0  0  0  0  0  0  0  0  0  0
   -9.3351   -6.3678  -27.4507 C   0  0  0  0  0  0  0  0  0  0  0  0
   -9.4478   -4.8771  -27.5742 C   0  0  0  0  0  0  0  0  0  0  0  0
   -8.9859   -3.9946  -26.4527 C   0  0  0  0  0  0  0  0  0  0  0  0
   -8.4113   -4.6027  -25.2077 C   0  0  0  0  0  0  0  0  0  0  0  0
   -8.9298    3.9727  -24.6184 C   0  0  0  0  0  0  0  0  0  0  0  0
   -6.4347    4.8726  -24.9505 N   0  0  0  0  0  0  0  0  0  0  0  0
   -5.2989    5.2131  -24.0317 N   0  0  0  0  0  0  0  0  0  0  0  0
   -5.7508    4.9628  -22.6235 C   0  0  0  0  0  0  0  0  0  0  0  0
   -7.1660    4.4677  -22.6719 C   0  0  0  0  0  0  0  0  0  0  0  0
   -7.5887    4.4120  -24.1100 C   0  0  0  0  0  0  0  0  0  0  0  0
   -7.7004    4.8655  -27.2194 C   0  0  0  0  0  0  0  0  0  0  0  0
   -6.4193    4.9749  -26.4470 C   0  0  0  0  0  0  0  0  0  0  0  0
 35 36  1  0  0  0
 36 30  1  0  0  0
 30 31  1  0  0  0
 31 32  2  0  0  0
 32 33  1  0  0  0
 33 34  2  0  0  0
 34 29  1  0  0  0
 29  1  1  0  0  0
  1  2  1  0  0  0
  3  2  1  0  0  0
  3  4  1  0  0  0
  4  5  2  0  0  0
  4  6  1  0  0  0
  6 19  1  0  0  0
 19 20  2  0  0  0
 20 21  1  0  0  0
 21 22  2  0  0  0
 22 23  1  0  0  0
 23 24  2  0  0  0
 24 25  1  0  0  0
 25 26  2  0  0  0
 26 27  1  0  0  0
 27 28  2  0  0  0
  6  7  1  0  0  0
  7  8  1  0  0  0
  8  9  1  0  0  0
  3 10  1  0  0  0
 10 11  2  0  0  0
 11 12  1  0  0  0
 12 13  1  0  0  0
 12 14  2  0  0  0
 14 15  1  0  0  0
 15 16  2  0  0  0
 16 17  1  0  0  0
 17 18  2  0  0  0
 34 30  1  0  0  0
 17  1  1  0  0  0
  8  3  1  0  0  0
 16 10  1  0  0  0
 28 19  1  0  0  0
 28 23  1  0  0  0
M  END
> <minimizedAffinity>
-7.36760

> <CNNscore>
0.3100073338

> <CNNaffinity>
6.4904351234

> <CNN_VS>
2.0120825768

> <CNNaffinity_variance>
0.1060267538

$$$$



 36 41  0  0  0  0  0  0  0  0999 V2000
   -9.3425   -2.6214  -23.6600 N   0  0  0  0  0  0  0  0  0  0  0  0
   -8.5450   -1.3901  -23.9729 C   0  0  0  0  0  0  0  0  0  0  0  0
   -9.2196   -0.0512  -24.0189 C   0  0  0  0  0  0  0  0  0  0  0  0
   -9.7536    1.3482  -24.0997 C   0  0  0  0  0  0  0  0  0  0  0  0
  -10.8002    1.9535  -23.9791 O   0  0  0  0  0  0  0  0  0  0  0  0
   -8.6121    2.2612  -24.4367 N   0  0  0  0  0  0  0  0  0  0  0  0
   -7.3727    1.4260  -24.5642 C   0  0  0  0  0  0  0  0  0  0  0  0
   -7.7482   -0.0031  -24.3060 C   0  0  0  0  0  0  0  0  0  0  0  0
   -6.8158   -1.1779  -24.3305 C   0  0  0  0  0  0  0  0  0  0  0  0
  -10.6918    0.0564  -23.7521 C   0  0  0  0  0  0  0  0  0  0  0  0
  -11.3665    1.3954  -23.7981 C   0  0  0  0  0  0  0  0  0  0  0  0
  -12.8386    1.5030  -23.5313 C   0  0  0  0  0  0  0  0  0  0  0  0
  -13.5133    2.8419  -23.5774 F   0  0  0  0  0  0  0  0  0  0  0  0
  -13.6361    0.2717  -23.2184 C   0  0  0  0  0  0  0  0  0  0  0  0
  -12.9615   -1.0672  -23.1724 C   0  0  0  0  0  0  0  0  0  0  0  0
  -11.4893   -1.1749  -23.4392 C   0  0  0  0  0  0  0  0  0  0  0  0
  -10.8146   -2.5138  -23.3932 C   0  0  0  0  0  0  0  0  0  0  0  0
  -11.5974   -3.2374  -23.1494 O   0  0  0  0  0  0  0  0  0  0  0  0
   -8.6955    3.7482  -24.6149 C   0  0  0  0  0  0  0  0  0  0  0  0
   -8.3452    4.6608  -23.4771 C   0  0  0  0  0  0  0  0  0  0  0  0
   -8.4286    6.1478  -23.6553 N   0  0  0  0  0  0  0  0  0  0  0  0
   -8.8622    6.7223  -24.9713 C   0  0  0  0  0  0  0  0  0  0  0  0
   -9.2126    5.8097  -26.1091 C   0  0  0  0  0  0  0  0  0  0  0  0
   -9.6463    6.3843  -27.4251 C   0  0  0  0  0  0  0  0  0  0  0  0
   -9.9966    5.4716  -28.5629 C   0  0  0  0  0  0  0  0  0  0  0  0
   -9.9132    3.9846  -28.3847 C   0  0  0  0  0  0  0  0  0  0  0  0
   -9.4795    3.4101  -27.0687 C   0  0  0  0  0  0  0  0  0  0  0  0
   -9.1292    4.3227  -25.9309 C   0  0  0  0  0  0  0  0  0  0  0  0
   -8.6678   -3.9604  -23.6139 C   0  0  0  0  0  0  0  0  0  0  0  0
   -8.0558   -6.1798  -24.9722 N   0  0  0  0  0  0  0  0  0  0  0  0
   -8.5915   -6.8529  -26.2010 N   0  0  0  0  0  0  0  0  0  0  0  0
   -9.7283   -6.0260  -26.7243 C   0  0  0  0  0  0  0  0  0  0  0  0
   -9.8953   -4.8418  -25.8188 C   0  0  0  0  0  0  0  0  0  0  0  0
   -8.8616   -4.9368  -24.7360 C   0  0  0  0  0  0  0  0  0  0  0  0
   -7.1532   -7.0626  -22.7015 C   0  0  0  0  0  0  0  0  0  0  0  0
   -6.9147   -6.6645  -24.1278 C   0  0  0  0  0  0  0  0  0  0  0  0
 35 36  1  0  0  0
 36 30  1  0  0  0
 30 31  1  0  0  0
 31 32  2  0  0  0
 32 33  1  0  0  0
 33 34  2  0  0  0
 34 29  1  0  0  0
 29  1  1  0  0  0
  1  2  1  0  0  0
  3  2  1  0  0  0
  3  4  1  0  0  0
  4  5  2  0  0  0
  4  6  1  0  0  0
  6 19  1  0  0  0
 19 20  2  0  0  0
 20 21  1  0  0  0
 21 22  2  0  0  0
 22 23  1  0  0  0
 23 24  2  0  0  0
 24 25  1  0  0  0
 25 26  2  0  0  0
 26 27  1  0  0  0
 27 28  2  0  0  0
  6  7  1  0  0  0
  7  8  1  0  0  0
  8  9  1  0  0  0
  3 10  1  0  0  0
 10 11  2  0  0  0
 11 12  1  0  0  0
 12 13  1  0  0  0
 12 14  2  0  0  0
 14 15  1  0  0  0
 15 16  2  0  0  0
 16 17  1  0  0  0
 17 18  2  0  0  0
 34 30  1  0  0  0
 17  1  1  0  0  0
  8  3  1  0  0  0
 16 10  1  0  0  0
 28 19  1  0  0  0
 28 23  1  0  0  0
M  END
> <minimizedAffinity>
-7.61326

> <CNNscore>
0.2374588549

> <CNNaffinity>
6.0806684494

> <CNN_VS>
1.4439085722

> <CNNaffinity_variance>
0.4056630731

$$$$



 36 41  0  0  0  0  0  0  0  0999 V2000
   -7.0278   -0.2861  -22.1821 N   0  0  0  0  0  0  0  0  0  0  0  0
   -7.1862    0.9934  -22.9487 C   0  0  0  0  0  0  0  0  0  0  0  0
   -8.5139    1.3483  -23.5495 C   0  0  0  0  0  0  0  0  0  0  0  0
   -9.7734    1.8343  -24.2033 C   0  0  0  0  0  0  0  0  0  0  0  0
  -10.9295    1.4963  -24.3630 O   0  0  0  0  0  0  0  0  0  0  0  0
   -9.4785    3.1529  -24.8549 N   0  0  0  0  0  0  0  0  0  0  0  0
   -8.0367    3.4818  -24.6038 C   0  0  0  0  0  0  0  0  0  0  0  0
   -7.4406    2.3665  -23.7970 C   0  0  0  0  0  0  0  0  0  0  0  0
   -6.0204    2.2840  -23.3213 C   0  0  0  0  0  0  0  0  0  0  0  0
   -9.6834    0.4237  -23.3837 C   0  0  0  0  0  0  0  0  0  0  0  0
  -11.0112    0.7786  -23.9845 C   0  0  0  0  0  0  0  0  0  0  0  0
  -12.1806   -0.1460  -23.8186 C   0  0  0  0  0  0  0  0  0  0  0  0
  -13.5085    0.2089  -24.4195 F   0  0  0  0  0  0  0  0  0  0  0  0
  -12.0222   -1.4255  -23.0520 C   0  0  0  0  0  0  0  0  0  0  0  0
  -10.6945   -1.7804  -22.4512 C   0  0  0  0  0  0  0  0  0  0  0  0
   -9.5251   -0.8558  -22.6170 C   0  0  0  0  0  0  0  0  0  0  0  0
   -8.1972   -1.2107  -22.0162 C   0  0  0  0  0  0  0  0  0  0  0  0
   -8.3395   -2.1737  -21.5182 O   0  0  0  0  0  0  0  0  0  0  0  0
  -10.4541    3.9947  -25.6227 C   0  0  0  0  0  0  0  0  0  0  0  0
  -10.3032    4.1524  -27.1068 C   0  0  0  0  0  0  0  0  0  0  0  0
  -11.2788    4.9941  -27.8746 N   0  0  0  0  0  0  0  0  0  0  0  0
  -12.4053    5.6782  -27.1584 C   0  0  0  0  0  0  0  0  0  0  0  0
  -12.5562    5.5205  -25.6744 C   0  0  0  0  0  0  0  0  0  0  0  0
  -13.6828    6.2046  -24.9582 C   0  0  0  0  0  0  0  0  0  0  0  0
  -13.8337    6.0469  -23.4741 C   0  0  0  0  0  0  0  0  0  0  0  0
  -12.8581    5.2051  -22.7063 C   0  0  0  0  0  0  0  0  0  0  0  0
  -11.7316    4.5210  -23.4225 C   0  0  0  0  0  0  0  0  0  0  0  0
  -11.5806    4.6787  -24.9065 C   0  0  0  0  0  0  0  0  0  0  0  0
   -5.6999   -0.6410  -21.5812 C   0  0  0  0  0  0  0  0  0  0  0  0
   -5.4453   -2.0160  -19.3031 N   0  0  0  0  0  0  0  0  0  0  0  0
   -5.3046   -3.4671  -18.9502 N   0  0  0  0  0  0  0  0  0  0  0  0
   -5.3194   -4.2577  -20.2248 C   0  0  0  0  0  0  0  0  0  0  0  0
   -5.4693   -3.2953  -21.3655 C   0  0  0  0  0  0  0  0  0  0  0  0
   -5.5471   -1.9098  -20.7959 C   0  0  0  0  0  0  0  0  0  0  0  0
   -4.7780    0.4124  -18.6646 C   0  0  0  0  0  0  0  0  0  0  0  0
   -5.4784   -0.8719  -18.3335 C   0  0  0  0  0  0  0  0  0  0  0  0
 35 36  1  0  0  0
 36 30  1  0  0  0
 30 31  1  0  0  0
 31 32  2  0  0  0
 32 33  1  0  0  0
 33 34  2  0  0  0
 34 29  1  0  0  0
 29  1  1  0  0  0
  1  2  1  0  0  0
  3  2  1  0  0  0
  3  4  1  0  0  0
  4  5  2  0  0  0
  4  6  1  0  0  0
  6 19  1  0  0  0
 19 20  2  0  0  0
 20 21  1  0  0  0
 21 22  2  0  0  0
 22 23  1  0  0  0
 23 24  2  0  0  0
 24 25  1  0  0  0
 25 26  2  0  0  0
 26 27  1  0  0  0
 27 28  2  0  0  0
  6  7  1  0  0  0
  7  8  1  0  0  0
  8  9  1  0  0  0
  3 10  1  0  0  0
 10 11  2  0  0  0
 11 12  1  0  0  0
 12 13  1  0  0  0
 12 14  2  0  0  0
 14 15  1  0  0  0
 15 16  2  0  0  0
 16 17  1  0  0  0
 17 18  2  0  0  0
 34 30  1  0  0  0
 17  1  1  0  0  0
  8  3  1  0  0  0
 16 10  1  0  0  0
 28 19  1  0  0  0
 28 23  1  0  0  0
M  END
> <minimizedAffinity>
-8.16951

> <CNNscore>
0.2330520004

> <CNNaffinity>
6.0240154266

> <CNN_VS>
1.4039088488

> <CNNaffinity_variance>
0.3745597005

$$$$
