


 25 28  0  0  0  0  0  0  0  0999 V2000
    8.5427    0.7680   21.4295 O   0  0  0  0  0  0  0  0  0  0  0  0
    7.8602   -0.4631   21.9477 C   0  0  0  0  0  0  0  0  0  0  0  0
    8.5574   -1.3458   22.9401 N   0  0  0  0  0  0  0  0  0  0  0  0
    7.8750   -2.5769   23.4583 C   0  0  0  0  0  0  0  0  0  0  0  0
    8.5722   -3.4595   24.4507 C   0  0  0  0  0  0  0  0  0  0  0  0
    9.9520   -3.1110   24.9248 C   0  0  0  0  0  0  0  0  0  0  0  0
   10.6492   -3.9936   25.9172 C   0  0  0  0  0  0  0  0  0  0  0  0
   12.0290   -3.6450   26.3914 C   0  0  0  0  0  0  0  0  0  0  0  0
   12.7115   -2.4139   25.8732 C   0  0  0  0  0  0  0  0  0  0  0  0
   13.7629   -1.3625   25.6758 F   0  0  0  0  0  0  0  0  0  0  0  0
   13.7739   -2.9314   26.7970 F   0  0  0  0  0  0  0  0  0  0  0  0
   12.0142   -1.5313   24.8808 C   0  0  0  0  0  0  0  0  0  0  0  0
   10.6345   -1.8798   24.4066 C   0  0  0  0  0  0  0  0  0  0  0  0
    9.9372   -0.9972   23.4143 C   0  0  0  0  0  0  0  0  0  0  0  0
    6.4804   -0.8116   21.4735 C   0  0  0  0  0  0  0  0  0  0  0  0
    5.9181   -0.1497   20.2506 C   0  0  0  0  0  0  0  0  0  0  0  0
    6.5766   -0.3524   18.9182 C   0  0  0  0  0  0  0  0  0  0  0  0
    6.0143    0.3096   17.6953 N   0  0  0  0  0  0  0  0  0  0  0  0
    4.7936    1.1743   17.8047 C   0  0  0  0  0  0  0  0  0  0  0  0
    4.1350    1.3771   19.1371 C   0  0  0  0  0  0  0  0  0  0  0  0
    2.9143    2.2418   19.2466 C   0  0  0  0  0  0  0  0  0  0  0  0
    2.2558    2.4445   20.5790 C   0  0  0  0  0  0  0  0  0  0  0  0
    2.8181    1.7825   21.8019 C   0  0  0  0  0  0  0  0  0  0  0  0
    4.0389    0.9178   21.6925 C   0  0  0  0  0  0  0  0  0  0  0  0
    4.6973    0.7151   20.3601 C   0  0  0  0  0  0  0  0  0  0  0  0
  1  2  2  0  0  0
  2 15  1  0  0  0
 15 16  1  0  0  0
 16 17  2  0  0  0
 17 18  1  0  0  0
 18 19  2  0  0  0
 19 20  1  0  0  0
 20 21  2  0  0  0
 21 22  1  0  0  0
 22 23  2  0  0  0
 23 24  1  0  0  0
 24 25  2  0  0  0
  2  3  1  0  0  0
  3  4  1  0  0  0
  4  5  1  0  0  0
  6  5  1  0  0  0
  6  7  1  0  0  0
  7  8  1  0  0  0
  8  9  1  0  0  0
  9 10  1  0  0  0
  9 11  1  0  0  0
  9 12  1  0  0  0
 13 12  1  0  0  0
 13 14  1  0  0  0
 25 16  1  0  0  0
 14  3  1  0  0  0
 25 20  1  0  0  0
 13  6  1  0  0  0
M  END
> <minimizedAffinity>
-8.93129

> <CNNscore>
0.7393515110

> <CNNaffinity>
5.9071798325

> <CNN_VS>
4.3674821854

> <CNNaffinity_variance>
0.0192790162

$$$$



 25 28  0  0  0  0  0  0  0  0999 V2000
    6.1512   -1.1871   22.3864 O   0  0  0  0  0  0  0  0  0  0  0  0
    7.5558   -0.8676   21.9677 C   0  0  0  0  0  0  0  0  0  0  0  0
    8.7106   -1.3123   22.8153 N   0  0  0  0  0  0  0  0  0  0  0  0
   10.1151   -0.9928   22.3966 C   0  0  0  0  0  0  0  0  0  0  0  0
   11.2700   -1.4375   23.2443 C   0  0  0  0  0  0  0  0  0  0  0  0
   11.0204   -2.2016   24.5107 C   0  0  0  0  0  0  0  0  0  0  0  0
   12.1752   -2.6463   25.3583 C   0  0  0  0  0  0  0  0  0  0  0  0
   11.9256   -3.4105   26.6248 C   0  0  0  0  0  0  0  0  0  0  0  0
   10.5211   -3.7299   27.0435 C   0  0  0  0  0  0  0  0  0  0  0  0
    9.3801   -4.2688   27.8544 F   0  0  0  0  0  0  0  0  0  0  0  0
   11.2797   -4.3617   28.1728 F   0  0  0  0  0  0  0  0  0  0  0  0
    9.3662   -3.2853   26.1958 C   0  0  0  0  0  0  0  0  0  0  0  0
    9.6158   -2.5211   24.9295 C   0  0  0  0  0  0  0  0  0  0  0  0
    8.4610   -2.0765   24.0818 C   0  0  0  0  0  0  0  0  0  0  0  0
    7.8054   -0.1035   20.7013 C   0  0  0  0  0  0  0  0  0  0  0  0
    6.6543    0.2910   19.8241 C   0  0  0  0  0  0  0  0  0  0  0  0
    6.4163   -0.4292   18.5300 C   0  0  0  0  0  0  0  0  0  0  0  0
    5.2653   -0.0347   17.6528 N   0  0  0  0  0  0  0  0  0  0  0  0
    4.3522    1.0800   18.0697 C   0  0  0  0  0  0  0  0  0  0  0  0
    4.5902    1.8002   19.3639 C   0  0  0  0  0  0  0  0  0  0  0  0
    3.6772    2.9149   19.7807 C   0  0  0  0  0  0  0  0  0  0  0  0
    3.9152    3.6351   21.0748 C   0  0  0  0  0  0  0  0  0  0  0  0
    5.0662    3.2406   21.9520 C   0  0  0  0  0  0  0  0  0  0  0  0
    5.9793    2.1259   21.5351 C   0  0  0  0  0  0  0  0  0  0  0  0
    5.7413    1.4057   20.2411 C   0  0  0  0  0  0  0  0  0  0  0  0
  1  2  2  0  0  0
  2 15  1  0  0  0
 15 16  1  0  0  0
 16 17  2  0  0  0
 17 18  1  0  0  0
 18 19  2  0  0  0
 19 20  1  0  0  0
 20 21  2  0  0  0
 21 22  1  0  0  0
 22 23  2  0  0  0
 23 24  1  0  0  0
 24 25  2  0  0  0
  2  3  1  0  0  0
  3  4  1  0  0  0
  4  5  1  0  0  0
  6  5  1  0  0  0
  6  7  1  0  0  0
  7  8  1  0  0  0
  8  9  1  0  0  0
  9 10  1  0  0  0
  9 11  1  0  0  0
  9 12  1  0  0  0
 13 12  1  0  0  0
 13 14  1  0  0  0
 25 16  1  0  0  0
 14  3  1  0  0  0
 25 20  1  0  0  0
 13  6  1  0  0  0
M  END
> <minimizedAffinity>
-8.02239

> <CNNscore>
0.6746509075

> <CNNaffinity>
5.7492575645

> <CNN_VS>
3.8787417412

> <CNNaffinity_variance>
0.0770156458

$$$$



 25 28  0  0  0  0  0  0  0  0999 V2000
    8.2787   -0.9080   23.0135 O   0  0  0  0  0  0  0  0  0  0  0  0
    9.7250   -0.5384   22.8653 C   0  0  0  0  0  0  0  0  0  0  0  0
   10.1343    0.9046   22.8671 N   0  0  0  0  0  0  0  0  0  0  0  0
   11.5805    1.2742   22.7189 C   0  0  0  0  0  0  0  0  0  0  0  0
   11.9898    2.7172   22.7207 C   0  0  0  0  0  0  0  0  0  0  0  0
   10.9530    3.7907   22.8708 C   0  0  0  0  0  0  0  0  0  0  0  0
   11.3624    5.2338   22.8727 C   0  0  0  0  0  0  0  0  0  0  0  0
   10.3255    6.3073   23.0228 C   0  0  0  0  0  0  0  0  0  0  0  0
    8.8793    5.9378   23.1711 C   0  0  0  0  0  0  0  0  0  0  0  0
    7.3965    6.0874   23.3404 F   0  0  0  0  0  0  0  0  0  0  0  0
    8.7737    7.4328   23.2317 F   0  0  0  0  0  0  0  0  0  0  0  0
    8.4700    4.4947   23.1692 C   0  0  0  0  0  0  0  0  0  0  0  0
    9.5068    3.4212   23.0191 C   0  0  0  0  0  0  0  0  0  0  0  0
    9.0974    1.9781   23.0172 C   0  0  0  0  0  0  0  0  0  0  0  0
   10.7618   -1.6119   22.7152 C   0  0  0  0  0  0  0  0  0  0  0  0
   11.5596   -2.0558   23.9053 C   0  0  0  0  0  0  0  0  0  0  0  0
   13.0449   -1.8487   23.9322 C   0  0  0  0  0  0  0  0  0  0  0  0
   13.8427   -2.2926   25.1223 N   0  0  0  0  0  0  0  0  0  0  0  0
   13.1551   -2.9436   26.2857 C   0  0  0  0  0  0  0  0  0  0  0  0
   11.6697   -3.1508   26.2588 C   0  0  0  0  0  0  0  0  0  0  0  0
   10.9821   -3.8018   27.4222 C   0  0  0  0  0  0  0  0  0  0  0  0
    9.4968   -4.0090   27.3953 C   0  0  0  0  0  0  0  0  0  0  0  0
    8.6990   -3.5651   26.2051 C   0  0  0  0  0  0  0  0  0  0  0  0
    9.3866   -2.9141   25.0418 C   0  0  0  0  0  0  0  0  0  0  0  0
   10.8719   -2.7069   25.0687 C   0  0  0  0  0  0  0  0  0  0  0  0
  1  2  2  0  0  0
  2 15  1  0  0  0
 15 16  1  0  0  0
 16 17  2  0  0  0
 17 18  1  0  0  0
 18 19  2  0  0  0
 19 20  1  0  0  0
 20 21  2  0  0  0
 21 22  1  0  0  0
 22 23  2  0  0  0
 23 24  1  0  0  0
 24 25  2  0  0  0
  2  3  1  0  0  0
  3  4  1  0  0  0
  4  5  1  0  0  0
  6  5  1  0  0  0
  6  7  1  0  0  0
  7  8  1  0  0  0
  8  9  1  0  0  0
  9 10  1  0  0  0
  9 11  1  0  0  0
  9 12  1  0  0  0
 13 12  1  0  0  0
 13 14  1  0  0  0
 25 16  1  0  0  0
 14  3  1  0  0  0
 25 20  1  0  0  0
 13  6  1  0  0  0
M  END
> <minimizedAffinity>
-7.66859

> <CNNscore>
0.5598654747

> <CNNaffinity>
5.9904842377

> <CNN_VS>
3.3538653851

> <CNNaffinity_variance>
0.0590264872

$$$$



 25 28  0  0  0  0  0  0  0  0999 V2000
    6.3191   -0.9682   22.9293 O   0  0  0  0  0  0  0  0  0  0  0  0
    7.4170   -0.0146   22.5610 C   0  0  0  0  0  0  0  0  0  0  0  0
    8.8126   -0.2495   23.0581 N   0  0  0  0  0  0  0  0  0  0  0  0
    9.9103    0.7040   22.6898 C   0  0  0  0  0  0  0  0  0  0  0  0
   11.3059    0.4691   23.1869 C   0  0  0  0  0  0  0  0  0  0  0  0
   11.6038   -0.7193   24.0523 C   0  0  0  0  0  0  0  0  0  0  0  0
   12.9994   -0.9542   24.5494 C   0  0  0  0  0  0  0  0  0  0  0  0
   13.2972   -2.1427   25.4148 C   0  0  0  0  0  0  0  0  0  0  0  0
   12.1994   -3.0962   25.7831 C   0  0  0  0  0  0  0  0  0  0  0  0
   11.5022   -4.2733   26.3982 F   0  0  0  0  0  0  0  0  0  0  0  0
   13.3528   -3.7399   26.4938 F   0  0  0  0  0  0  0  0  0  0  0  0
   10.8038   -2.8613   25.2860 C   0  0  0  0  0  0  0  0  0  0  0  0
   10.5060   -1.6729   24.4206 C   0  0  0  0  0  0  0  0  0  0  0  0
    9.1104   -1.4380   23.9235 C   0  0  0  0  0  0  0  0  0  0  0  0
    7.1191    1.1738   21.6956 C   0  0  0  0  0  0  0  0  0  0  0  0
    6.3300    1.0023   20.4316 C   0  0  0  0  0  0  0  0  0  0  0  0
    6.8145    0.0638   19.3665 C   0  0  0  0  0  0  0  0  0  0  0  0
    6.0254   -0.1078   18.1024 N   0  0  0  0  0  0  0  0  0  0  0  0
    4.7518    0.6591   17.9034 C   0  0  0  0  0  0  0  0  0  0  0  0
    4.2672    1.5976   18.9685 C   0  0  0  0  0  0  0  0  0  0  0  0
    2.9935    2.3645   18.7696 C   0  0  0  0  0  0  0  0  0  0  0  0
    2.5090    3.3030   19.8346 C   0  0  0  0  0  0  0  0  0  0  0  0
    3.2981    3.4746   21.0987 C   0  0  0  0  0  0  0  0  0  0  0  0
    4.5718    2.7077   21.2977 C   0  0  0  0  0  0  0  0  0  0  0  0
    5.0563    1.7692   20.2326 C   0  0  0  0  0  0  0  0  0  0  0  0
  1  2  2  0  0  0
  2 15  1  0  0  0
 15 16  1  0  0  0
 16 17  2  0  0  0
 17 18  1  0  0  0
 18 19  2  0  0  0
 19 20  1  0  0  0
 20 21  2  0  0  0
 21 22  1  0  0  0
 22 23  2  0  0  0
 23 24  1  0  0  0
 24 25  2  0  0  0
  2  3  1  0  0  0
  3  4  1  0  0  0
  4  5  1  0  0  0
  6  5  1  0  0  0
  6  7  1  0  0  0
  7  8  1  0  0  0
  8  9  1  0  0  0
  9 10  1  0  0  0
  9 11  1  0  0  0
  9 12  1  0  0  0
 13 12  1  0  0  0
 13 14  1  0  0  0
 25 16  1  0  0  0
 14  3  1  0  0  0
 25 20  1  0  0  0
 13  6  1  0  0  0
M  END
> <minimizedAffinity>
-8.67702

> <CNNscore>
0.5499385595

> <CNNaffinity>
5.8025074005

> <CNN_VS>
3.1910226345

> <CNNaffinity_variance>
0.1297642887

$$$$



 25 28  0  0  0  0  0  0  0  0999 V2000
    9.2907   -2.0145   21.6251 O   0  0  0  0  0  0  0  0  0  0  0  0
   10.2829   -1.0347   22.1780 C   0  0  0  0  0  0  0  0  0  0  0  0
    9.8705    0.3835   22.4397 N   0  0  0  0  0  0  0  0  0  0  0  0
   10.8626    1.3633   22.9926 C   0  0  0  0  0  0  0  0  0  0  0  0
   10.4502    2.7815   23.2542 C   0  0  0  0  0  0  0  0  0  0  0  0
    9.0456    3.2200   22.9630 C   0  0  0  0  0  0  0  0  0  0  0  0
    8.6331    4.6383   23.2247 C   0  0  0  0  0  0  0  0  0  0  0  0
    7.2285    5.0768   22.9334 C   0  0  0  0  0  0  0  0  0  0  0  0
    6.2364    4.0970   22.3805 C   0  0  0  0  0  0  0  0  0  0  0  0
    4.9453    3.5429   21.8551 F   0  0  0  0  0  0  0  0  0  0  0  0
    5.3756    5.3228   22.4597 F   0  0  0  0  0  0  0  0  0  0  0  0
    6.6488    2.6788   22.1189 C   0  0  0  0  0  0  0  0  0  0  0  0
    8.0534    2.2403   22.4101 C   0  0  0  0  0  0  0  0  0  0  0  0
    8.4658    0.8220   22.1484 C   0  0  0  0  0  0  0  0  0  0  0  0
   11.6875   -1.4732   22.4693 C   0  0  0  0  0  0  0  0  0  0  0  0
   12.0505   -1.9665   23.8385 C   0  0  0  0  0  0  0  0  0  0  0  0
   13.4722   -1.8905   24.3106 C   0  0  0  0  0  0  0  0  0  0  0  0
   13.8353   -2.3838   25.6798 N   0  0  0  0  0  0  0  0  0  0  0  0
   12.7766   -2.9532   26.5770 C   0  0  0  0  0  0  0  0  0  0  0  0
   11.3548   -3.0293   26.1049 C   0  0  0  0  0  0  0  0  0  0  0  0
   10.2961   -3.5988   27.0021 C   0  0  0  0  0  0  0  0  0  0  0  0
    8.8744   -3.6748   26.5300 C   0  0  0  0  0  0  0  0  0  0  0  0
    8.5114   -3.1815   25.1607 C   0  0  0  0  0  0  0  0  0  0  0  0
    9.5701   -2.6121   24.2636 C   0  0  0  0  0  0  0  0  0  0  0  0
   10.9918   -2.5360   24.7357 C   0  0  0  0  0  0  0  0  0  0  0  0
  1  2  2  0  0  0
  2 15  1  0  0  0
 15 16  1  0  0  0
 16 17  2  0  0  0
 17 18  1  0  0  0
 18 19  2  0  0  0
 19 20  1  0  0  0
 20 21  2  0  0  0
 21 22  1  0  0  0
 22 23  2  0  0  0
 23 24  1  0  0  0
 24 25  2  0  0  0
  2  3  1  0  0  0
  3  4  1  0  0  0
  4  5  1  0  0  0
  6  5  1  0  0  0
  6  7  1  0  0  0
  7  8  1  0  0  0
  8  9  1  0  0  0
  9 10  1  0  0  0
  9 11  1  0  0  0
  9 12  1  0  0  0
 13 12  1  0  0  0
 13 14  1  0  0  0
 25 16  1  0  0  0
 14  3  1  0  0  0
 25 20  1  0  0  0
 13  6  1  0  0  0
M  END
> <minimizedAffinity>
-7.26520

> <CNNscore>
0.4741486609

> <CNNaffinity>
5.8430008888

> <CNN_VS>
2.7704510689

> <CNNaffinity_variance>
0.1611208320

$$$$



 25 28  0  0  0  0  0  0  0  0999 V2000
    6.4921   -3.1978   22.7376 O   0  0  0  0  0  0  0  0  0  0  0  0
    7.1835   -1.9287   22.3359 C   0  0  0  0  0  0  0  0  0  0  0  0
    8.5443   -1.6109   22.8813 N   0  0  0  0  0  0  0  0  0  0  0  0
    9.2357   -0.3419   22.4795 C   0  0  0  0  0  0  0  0  0  0  0  0
   10.5964   -0.0241   23.0249 C   0  0  0  0  0  0  0  0  0  0  0  0
   11.2657   -0.9754   23.9720 C   0  0  0  0  0  0  0  0  0  0  0  0
   12.6264   -0.6576   24.5174 C   0  0  0  0  0  0  0  0  0  0  0  0
   13.2958   -1.6090   25.4645 C   0  0  0  0  0  0  0  0  0  0  0  0
   12.6044   -2.8780   25.8662 C   0  0  0  0  0  0  0  0  0  0  0  0
   12.3555   -4.1957   26.5384 F   0  0  0  0  0  0  0  0  0  0  0  0
   13.8787   -3.0178   26.6450 F   0  0  0  0  0  0  0  0  0  0  0  0
   11.2437   -3.1958   25.3208 C   0  0  0  0  0  0  0  0  0  0  0  0
   10.5743   -2.2445   24.3738 C   0  0  0  0  0  0  0  0  0  0  0  0
    9.2136   -2.5623   23.8284 C   0  0  0  0  0  0  0  0  0  0  0  0
    6.5142   -0.9774   21.3888 C   0  0  0  0  0  0  0  0  0  0  0  0
    5.3530   -0.1493   21.8534 C   0  0  0  0  0  0  0  0  0  0  0  0
    4.9720   -0.1390   23.3041 C   0  0  0  0  0  0  0  0  0  0  0  0
    3.8108    0.6892   23.7687 N   0  0  0  0  0  0  0  0  0  0  0  0
    3.0307    1.5070   22.7826 C   0  0  0  0  0  0  0  0  0  0  0  0
    3.4117    1.4967   21.3318 C   0  0  0  0  0  0  0  0  0  0  0  0
    2.6315    2.3145   20.3456 C   0  0  0  0  0  0  0  0  0  0  0  0
    3.0126    2.3042   18.8949 C   0  0  0  0  0  0  0  0  0  0  0  0
    4.1737    1.4760   18.4303 C   0  0  0  0  0  0  0  0  0  0  0  0
    4.9539    0.6582   19.4164 C   0  0  0  0  0  0  0  0  0  0  0  0
    4.5729    0.6686   20.8672 C   0  0  0  0  0  0  0  0  0  0  0  0
  1  2  2  0  0  0
  2 15  1  0  0  0
 15 16  1  0  0  0
 16 17  2  0  0  0
 17 18  1  0  0  0
 18 19  2  0  0  0
 19 20  1  0  0  0
 20 21  2  0  0  0
 21 22  1  0  0  0
 22 23  2  0  0  0
 23 24  1  0  0  0
 24 25  2  0  0  0
  2  3  1  0  0  0
  3  4  1  0  0  0
  4  5  1  0  0  0
  6  5  1  0  0  0
  6  7  1  0  0  0
  7  8  1  0  0  0
  8  9  1  0  0  0
  9 10  1  0  0  0
  9 11  1  0  0  0
  9 12  1  0  0  0
 13 12  1  0  0  0
 13 14  1  0  0  0
 25 16  1  0  0  0
 14  3  1  0  0  0
 25 20  1  0  0  0
 13  6  1  0  0  0
M  END
> <minimizedAffinity>
-8.21559

> <CNNscore>
0.4250515401

> <CNNaffinity>
5.6750173569

> <CNN_VS>
2.4121749401

> <CNNaffinity_variance>
0.2250066251

$$$$



 25 28  0  0  0  0  0  0  0  0999 V2000
    7.6716   -0.0390   19.7115 O   0  0  0  0  0  0  0  0  0  0  0  0
    7.1602    0.1197   21.1128 C   0  0  0  0  0  0  0  0  0  0  0  0
    8.0453   -0.2154   22.2766 N   0  0  0  0  0  0  0  0  0  0  0  0
    7.5340   -0.0567   23.6777 C   0  0  0  0  0  0  0  0  0  0  0  0
    8.4190   -0.3919   24.8415 C   0  0  0  0  0  0  0  0  0  0  0  0
    9.8153   -0.8858   24.6041 C   0  0  0  0  0  0  0  0  0  0  0  0
   10.7003   -1.2209   25.7679 C   0  0  0  0  0  0  0  0  0  0  0  0
   12.0967   -1.7148   25.5304 C   0  0  0  0  0  0  0  0  0  0  0  0
   12.6080   -1.8735   24.1292 C   0  0  0  0  0  0  0  0  0  0  0  0
   13.5389   -2.1863   22.9954 F   0  0  0  0  0  0  0  0  0  0  0  0
   13.8163   -2.3173   24.8992 F   0  0  0  0  0  0  0  0  0  0  0  0
   11.7230   -1.5383   22.9655 C   0  0  0  0  0  0  0  0  0  0  0  0
   10.3267   -1.0445   23.2029 C   0  0  0  0  0  0  0  0  0  0  0  0
    9.4416   -0.7093   22.0391 C   0  0  0  0  0  0  0  0  0  0  0  0
    5.7639    0.6136   21.3502 C   0  0  0  0  0  0  0  0  0  0  0  0
    5.4881    2.0871   21.4015 C   0  0  0  0  0  0  0  0  0  0  0  0
    6.5899    3.0448   21.7460 C   0  0  0  0  0  0  0  0  0  0  0  0
    6.3141    4.5184   21.7974 N   0  0  0  0  0  0  0  0  0  0  0  0
    4.9365    5.0342   21.5042 C   0  0  0  0  0  0  0  0  0  0  0  0
    3.8346    4.0765   21.1597 C   0  0  0  0  0  0  0  0  0  0  0  0
    2.4569    4.5923   20.8665 C   0  0  0  0  0  0  0  0  0  0  0  0
    1.3551    3.6346   20.5221 C   0  0  0  0  0  0  0  0  0  0  0  0
    1.6309    2.1611   20.4707 C   0  0  0  0  0  0  0  0  0  0  0  0
    3.0086    1.6452   20.7639 C   0  0  0  0  0  0  0  0  0  0  0  0
    4.1104    2.6029   21.1084 C   0  0  0  0  0  0  0  0  0  0  0  0
  1  2  2  0  0  0
  2 15  1  0  0  0
 15 16  1  0  0  0
 16 17  2  0  0  0
 17 18  1  0  0  0
 18 19  2  0  0  0
 19 20  1  0  0  0
 20 21  2  0  0  0
 21 22  1  0  0  0
 22 23  2  0  0  0
 23 24  1  0  0  0
 24 25  2  0  0  0
  2  3  1  0  0  0
  3  4  1  0  0  0
  4  5  1  0  0  0
  6  5  1  0  0  0
  6  7  1  0  0  0
  7  8  1  0  0  0
  8  9  1  0  0  0
  9 10  1  0  0  0
  9 11  1  0  0  0
  9 12  1  0  0  0
 13 12  1  0  0  0
 13 14  1  0  0  0
 25 16  1  0  0  0
 14  3  1  0  0  0
 25 20  1  0  0  0
 13  6  1  0  0  0
M  END
> <minimizedAffinity>
-7.45476

> <CNNscore>
0.4152499139

> <CNNaffinity>
5.5294451714

> <CNN_VS>
2.2961015701

> <CNNaffinity_variance>
0.1261861473

$$$$



 25 28  0  0  0  0  0  0  0  0999 V2000
    6.1094   -3.1440   23.8804 O   0  0  0  0  0  0  0  0  0  0  0  0
    6.9171   -2.4056   22.8545 C   0  0  0  0  0  0  0  0  0  0  0  0
    8.3849   -2.1858   23.0718 N   0  0  0  0  0  0  0  0  0  0  0  0
    9.1926   -1.4474   22.0460 C   0  0  0  0  0  0  0  0  0  0  0  0
   10.6604   -1.2275   22.2632 C   0  0  0  0  0  0  0  0  0  0  0  0
   11.3206   -1.7461   23.5063 C   0  0  0  0  0  0  0  0  0  0  0  0
   12.7884   -1.5263   23.7236 C   0  0  0  0  0  0  0  0  0  0  0  0
   13.4485   -2.0449   24.9668 C   0  0  0  0  0  0  0  0  0  0  0  0
   12.6408   -2.7833   25.9926 C   0  0  0  0  0  0  0  0  0  0  0  0
   12.3019   -3.5361   27.2449 F   0  0  0  0  0  0  0  0  0  0  0  0
   13.9909   -2.8249   26.6447 F   0  0  0  0  0  0  0  0  0  0  0  0
   11.1730   -3.0031   25.7753 C   0  0  0  0  0  0  0  0  0  0  0  0
   10.5128   -2.4845   24.5322 C   0  0  0  0  0  0  0  0  0  0  0  0
    9.0450   -2.7044   24.3150 C   0  0  0  0  0  0  0  0  0  0  0  0
    6.2570   -1.8870   21.6115 C   0  0  0  0  0  0  0  0  0  0  0  0
    5.3682   -0.6808   21.6816 C   0  0  0  0  0  0  0  0  0  0  0  0
    4.8328   -0.2196   23.0047 C   0  0  0  0  0  0  0  0  0  0  0  0
    3.9439    0.9866   23.0749 N   0  0  0  0  0  0  0  0  0  0  0  0
    3.5905    1.7317   21.8220 C   0  0  0  0  0  0  0  0  0  0  0  0
    4.1259    1.2706   20.4988 C   0  0  0  0  0  0  0  0  0  0  0  0
    3.7724    2.0156   19.2459 C   0  0  0  0  0  0  0  0  0  0  0  0
    4.3078    1.5545   17.9228 C   0  0  0  0  0  0  0  0  0  0  0  0
    5.1966    0.3482   17.8526 C   0  0  0  0  0  0  0  0  0  0  0  0
    5.5501   -0.3969   19.1055 C   0  0  0  0  0  0  0  0  0  0  0  0
    5.0147    0.0643   20.4286 C   0  0  0  0  0  0  0  0  0  0  0  0
  1  2  2  0  0  0
  2 15  1  0  0  0
 15 16  1  0  0  0
 16 17  2  0  0  0
 17 18  1  0  0  0
 18 19  2  0  0  0
 19 20  1  0  0  0
 20 21  2  0  0  0
 21 22  1  0  0  0
 22 23  2  0  0  0
 23 24  1  0  0  0
 24 25  2  0  0  0
  2  3  1  0  0  0
  3  4  1  0  0  0
  4  5  1  0  0  0
  6  5  1  0  0  0
  6  7  1  0  0  0
  7  8  1  0  0  0
  8  9  1  0  0  0
  9 10  1  0  0  0
  9 11  1  0  0  0
  9 12  1  0  0  0
 13 12  1  0  0  0
 13 14  1  0  0  0
 25 16  1  0  0  0
 14  3  1  0  0  0
 25 20  1  0  0  0
 13  6  1  0  0  0
M  END
> <minimizedAffinity>
-8.46511

> <CNNscore>
0.3989828825

> <CNNaffinity>
5.7044420242

> <CNN_VS>
2.2759747505

> <CNNaffinity_variance>
0.1935275495

$$$$



 25 28  0  0  0  0  0  0  0  0999 V2000
    7.0716   -0.7922   22.6897 O   0  0  0  0  0  0  0  0  0  0  0  0
    8.5523   -0.5546   22.6527 C   0  0  0  0  0  0  0  0  0  0  0  0
    9.0902    0.8424   22.7462 N   0  0  0  0  0  0  0  0  0  0  0  0
   10.5708    1.0800   22.7092 C   0  0  0  0  0  0  0  0  0  0  0  0
   11.1088    2.4771   22.8027 C   0  0  0  0  0  0  0  0  0  0  0  0
   10.1662    3.6366   22.9332 C   0  0  0  0  0  0  0  0  0  0  0  0
   10.7042    5.0337   23.0268 C   0  0  0  0  0  0  0  0  0  0  0  0
    9.7616    6.1932   23.1573 C   0  0  0  0  0  0  0  0  0  0  0  0
    8.2810    5.9556   23.1943 C   0  0  0  0  0  0  0  0  0  0  0  0
    6.8098    6.2372   23.2733 F   0  0  0  0  0  0  0  0  0  0  0  0
    8.3081    7.4504   23.3152 F   0  0  0  0  0  0  0  0  0  0  0  0
    7.7430    4.5585   23.1008 C   0  0  0  0  0  0  0  0  0  0  0  0
    8.6856    3.3990   22.9702 C   0  0  0  0  0  0  0  0  0  0  0  0
    8.1476    2.0020   22.8767 C   0  0  0  0  0  0  0  0  0  0  0  0
    9.4948   -1.7141   22.5222 C   0  0  0  0  0  0  0  0  0  0  0  0
    9.7094   -2.6406   23.6822 C   0  0  0  0  0  0  0  0  0  0  0  0
    8.6593   -3.6502   24.0398 C   0  0  0  0  0  0  0  0  0  0  0  0
    8.8739   -4.5767   25.1999 N   0  0  0  0  0  0  0  0  0  0  0  0
   10.1384   -4.4934   26.0023 C   0  0  0  0  0  0  0  0  0  0  0  0
   11.1885   -3.4837   25.6447 C   0  0  0  0  0  0  0  0  0  0  0  0
   12.4531   -3.4005   26.4471 C   0  0  0  0  0  0  0  0  0  0  0  0
   13.5031   -2.3908   26.0894 C   0  0  0  0  0  0  0  0  0  0  0  0
   13.2886   -1.4644   24.9294 C   0  0  0  0  0  0  0  0  0  0  0  0
   12.0240   -1.5476   24.1270 C   0  0  0  0  0  0  0  0  0  0  0  0
   10.9740   -2.5573   24.4846 C   0  0  0  0  0  0  0  0  0  0  0  0
  1  2  2  0  0  0
  2 15  1  0  0  0
 15 16  1  0  0  0
 16 17  2  0  0  0
 17 18  1  0  0  0
 18 19  2  0  0  0
 19 20  1  0  0  0
 20 21  2  0  0  0
 21 22  1  0  0  0
 22 23  2  0  0  0
 23 24  1  0  0  0
 24 25  2  0  0  0
  2  3  1  0  0  0
  3  4  1  0  0  0
  4  5  1  0  0  0
  6  5  1  0  0  0
  6  7  1  0  0  0
  7  8  1  0  0  0
  8  9  1  0  0  0
  9 10  1  0  0  0
  9 11  1  0  0  0
  9 12  1  0  0  0
 13 12  1  0  0  0
 13 14  1  0  0  0
 25 16  1  0  0  0
 14  3  1  0  0  0
 25 20  1  0  0  0
 13  6  1  0  0  0
M  END
> <minimizedAffinity>
-7.59778

> <CNNscore>
0.3967313468

> <CNNaffinity>
5.7962999344

> <CNN_VS>
2.2995738983

> <CNNaffinity_variance>
0.0880106464

$$$$
