


 25 28  0  0  0  0  0  0  0  0999 V2000
   -7.5457   -1.5441  -22.1875 O   0  0  0  0  0  0  0  0  0  0  0  0
   -6.6500   -2.7458  -22.1267 C   0  0  0  0  0  0  0  0  0  0  0  0
   -6.7321   -3.7972  -23.1934 N   0  0  0  0  0  0  0  0  0  0  0  0
   -5.8364   -4.9989  -23.1326 C   0  0  0  0  0  0  0  0  0  0  0  0
   -5.9186   -6.0503  -24.1993 C   0  0  0  0  0  0  0  0  0  0  0  0
   -6.8964   -5.9000  -25.3267 C   0  0  0  0  0  0  0  0  0  0  0  0
   -6.9786   -6.9514  -26.3934 C   0  0  0  0  0  0  0  0  0  0  0  0
   -7.9565   -6.8012  -27.5209 C   0  0  0  0  0  0  0  0  0  0  0  0
   -8.8522   -5.5995  -27.5817 C   0  0  0  0  0  0  0  0  0  0  0  0
   -9.9032   -4.6483  -28.0720 F   0  0  0  0  0  0  0  0  0  0  0  0
   -9.2993   -6.3206  -28.8186 F   0  0  0  0  0  0  0  0  0  0  0  0
   -8.7700   -4.5481  -26.5150 C   0  0  0  0  0  0  0  0  0  0  0  0
   -7.7922   -4.6983  -25.3876 C   0  0  0  0  0  0  0  0  0  0  0  0
   -7.7100   -3.6469  -24.3209 C   0  0  0  0  0  0  0  0  0  0  0  0
   -5.6721   -2.8960  -20.9993 C   0  0  0  0  0  0  0  0  0  0  0  0
   -5.4278   -1.7517  -20.0608 C   0  0  0  0  0  0  0  0  0  0  0  0
   -5.8997   -1.8336  -18.6393 C   0  0  0  0  0  0  0  0  0  0  0  0
   -5.6554   -0.6892  -17.7009 N   0  0  0  0  0  0  0  0  0  0  0  0
   -4.9393    0.5371  -18.1839 C   0  0  0  0  0  0  0  0  0  0  0  0
   -4.4674    0.6191  -19.6054 C   0  0  0  0  0  0  0  0  0  0  0  0
   -3.7513    1.8454  -20.0884 C   0  0  0  0  0  0  0  0  0  0  0  0
   -3.2794    1.9273  -21.5098 C   0  0  0  0  0  0  0  0  0  0  0  0
   -3.5237    0.7829  -22.4483 C   0  0  0  0  0  0  0  0  0  0  0  0
   -4.2398   -0.4434  -21.9653 C   0  0  0  0  0  0  0  0  0  0  0  0
   -4.7117   -0.5253  -20.5439 C   0  0  0  0  0  0  0  0  0  0  0  0
  1  2  2  0  0  0
  2 15  1  0  0  0
 15 16  1  0  0  0
 16 17  2  0  0  0
 17 18  1  0  0  0
 18 19  2  0  0  0
 19 20  1  0  0  0
 20 21  2  0  0  0
 21 22  1  0  0  0
 22 23  2  0  0  0
 23 24  1  0  0  0
 24 25  2  0  0  0
  2  3  1  0  0  0
  3  4  1  0  0  0
  4  5  1  0  0  0
  6  5  1  0  0  0
  6  7  1  0  0  0
  7  8  1  0  0  0
  8  9  1  0  0  0
  9 10  1  0  0  0
  9 11  1  0  0  0
  9 12  1  0  0  0
 13 12  1  0  0  0
 13 14  1  0  0  0
 25 16  1  0  0  0
 14  3  1  0  0  0
 25 20  1  0  0  0
 13  6  1  0  0  0
M  END
> <minimizedAffinity>
-7.31955

> <CNNscore>
0.5681015849

> <CNNaffinity>
5.3732190132

> <CNN_VS>
3.0525343418

> <CNNaffinity_variance>
0.0521201193

$$$$



 25 28  0  0  0  0  0  0  0  0999 V2000
   -7.8091   -4.0038  -22.4011 O   0  0  0  0  0  0  0  0  0  0  0  0
   -7.2561   -2.6338  -22.1412 C   0  0  0  0  0  0  0  0  0  0  0  0
   -8.1229   -1.4255  -22.3379 N   0  0  0  0  0  0  0  0  0  0  0  0
   -7.5700   -0.0555  -22.0780 C   0  0  0  0  0  0  0  0  0  0  0  0
   -8.4367    1.1528  -22.2747 C   0  0  0  0  0  0  0  0  0  0  0  0
   -9.8564    0.9912  -22.7312 C   0  0  0  0  0  0  0  0  0  0  0  0
  -10.7231    2.1995  -22.9279 C   0  0  0  0  0  0  0  0  0  0  0  0
  -12.1428    2.0379  -23.3844 C   0  0  0  0  0  0  0  0  0  0  0  0
  -12.6957    0.6679  -23.6443 C   0  0  0  0  0  0  0  0  0  0  0  0
  -13.6668   -0.4127  -24.0175 F   0  0  0  0  0  0  0  0  0  0  0  0
  -13.8997    1.5009  -23.9705 F   0  0  0  0  0  0  0  0  0  0  0  0
  -11.8290   -0.5404  -23.4476 C   0  0  0  0  0  0  0  0  0  0  0  0
  -10.4093   -0.3788  -22.9911 C   0  0  0  0  0  0  0  0  0  0  0  0
   -9.5426   -1.5871  -22.7944 C   0  0  0  0  0  0  0  0  0  0  0  0
   -5.8365   -2.4722  -21.6847 C   0  0  0  0  0  0  0  0  0  0  0  0
   -5.5225   -1.5995  -20.5058 C   0  0  0  0  0  0  0  0  0  0  0  0
   -6.0859   -1.9313  -19.1558 C   0  0  0  0  0  0  0  0  0  0  0  0
   -5.7719   -1.0586  -17.9769 N   0  0  0  0  0  0  0  0  0  0  0  0
   -4.8944    0.1459  -18.1480 C   0  0  0  0  0  0  0  0  0  0  0  0
   -4.3310    0.4777  -19.4980 C   0  0  0  0  0  0  0  0  0  0  0  0
   -3.4536    1.6822  -19.6690 C   0  0  0  0  0  0  0  0  0  0  0  0
   -2.8902    2.0140  -21.0190 C   0  0  0  0  0  0  0  0  0  0  0  0
   -3.2042    1.1413  -22.1979 C   0  0  0  0  0  0  0  0  0  0  0  0
   -4.0816   -0.0632  -22.0269 C   0  0  0  0  0  0  0  0  0  0  0  0
   -4.6450   -0.3950  -20.6769 C   0  0  0  0  0  0  0  0  0  0  0  0
  1  2  2  0  0  0
  2 15  1  0  0  0
 15 16  1  0  0  0
 16 17  2  0  0  0
 17 18  1  0  0  0
 18 19  2  0  0  0
 19 20  1  0  0  0
 20 21  2  0  0  0
 21 22  1  0  0  0
 22 23  2  0  0  0
 23 24  1  0  0  0
 24 25  2  0  0  0
  2  3  1  0  0  0
  3  4  1  0  0  0
  4  5  1  0  0  0
  6  5  1  0  0  0
  6  7  1  0  0  0
  7  8  1  0  0  0
  8  9  1  0  0  0
  9 10  1  0  0  0
  9 11  1  0  0  0
  9 12  1  0  0  0
 13 12  1  0  0  0
 13 14  1  0  0  0
 25 16  1  0  0  0
 14  3  1  0  0  0
 25 20  1  0  0  0
 13  6  1  0  0  0
M  END
> <minimizedAffinity>
-7.98716

> <CNNscore>
0.5443084240

> <CNNaffinity>
5.6228299141

> <CNN_VS>
3.0605537891

> <CNNaffinity_variance>
0.5199481249

$$$$



 25 28  0  0  0  0  0  0  0  0999 V2000
   -7.1187   -0.2296  -18.8060 O   0  0  0  0  0  0  0  0  0  0  0  0
   -6.1578   -0.6294  -19.8863 C   0  0  0  0  0  0  0  0  0  0  0  0
   -6.6549   -1.3548  -21.1014 N   0  0  0  0  0  0  0  0  0  0  0  0
   -5.6941   -1.7547  -22.1816 C   0  0  0  0  0  0  0  0  0  0  0  0
   -6.1913   -2.4801  -23.3968 C   0  0  0  0  0  0  0  0  0  0  0  0
   -7.6493   -2.8056  -23.5318 C   0  0  0  0  0  0  0  0  0  0  0  0
   -8.1465   -3.5310  -24.7469 C   0  0  0  0  0  0  0  0  0  0  0  0
   -9.6045   -3.8565  -24.8818 C   0  0  0  0  0  0  0  0  0  0  0  0
  -10.5653   -3.4567  -23.8016 C   0  0  0  0  0  0  0  0  0  0  0  0
  -11.8543   -3.2884  -23.0531 F   0  0  0  0  0  0  0  0  0  0  0  0
  -11.5101   -4.1236  -24.7568 F   0  0  0  0  0  0  0  0  0  0  0  0
  -10.0682   -2.7313  -22.5865 C   0  0  0  0  0  0  0  0  0  0  0  0
   -8.6102   -2.4058  -22.4515 C   0  0  0  0  0  0  0  0  0  0  0  0
   -8.1130   -1.6804  -21.2363 C   0  0  0  0  0  0  0  0  0  0  0  0
   -4.6998   -0.3039  -19.7513 C   0  0  0  0  0  0  0  0  0  0  0  0
   -4.1816    1.0244  -20.2172 C   0  0  0  0  0  0  0  0  0  0  0  0
   -2.8734    1.5431  -19.6980 C   0  0  0  0  0  0  0  0  0  0  0  0
   -2.3553    2.8715  -20.1639 N   0  0  0  0  0  0  0  0  0  0  0  0
   -3.1454    3.6811  -21.1489 C   0  0  0  0  0  0  0  0  0  0  0  0
   -4.4536    3.1625  -21.6680 C   0  0  0  0  0  0  0  0  0  0  0  0
   -5.2437    3.9721  -22.6530 C   0  0  0  0  0  0  0  0  0  0  0  0
   -6.5519    3.4534  -23.1721 C   0  0  0  0  0  0  0  0  0  0  0  0
   -7.0700    2.1251  -22.7062 C   0  0  0  0  0  0  0  0  0  0  0  0
   -6.2800    1.3154  -21.7213 C   0  0  0  0  0  0  0  0  0  0  0  0
   -4.9718    1.8341  -21.2022 C   0  0  0  0  0  0  0  0  0  0  0  0
  1  2  2  0  0  0
  2 15  1  0  0  0
 15 16  1  0  0  0
 16 17  2  0  0  0
 17 18  1  0  0  0
 18 19  2  0  0  0
 19 20  1  0  0  0
 20 21  2  0  0  0
 21 22  1  0  0  0
 22 23  2  0  0  0
 23 24  1  0  0  0
 24 25  2  0  0  0
  2  3  1  0  0  0
  3  4  1  0  0  0
  4  5  1  0  0  0
  6  5  1  0  0  0
  6  7  1  0  0  0
  7  8  1  0  0  0
  8  9  1  0  0  0
  9 10  1  0  0  0
  9 11  1  0  0  0
  9 12  1  0  0  0
 13 12  1  0  0  0
 13 14  1  0  0  0
 25 16  1  0  0  0
 14  3  1  0  0  0
 25 20  1  0  0  0
 13  6  1  0  0  0
M  END
> <minimizedAffinity>
-7.07331

> <CNNscore>
0.5112516284

> <CNNaffinity>
5.4196023941

> <CNN_VS>
2.7707805634

> <CNNaffinity_variance>
0.3904531896

$$$$



 25 28  0  0  0  0  0  0  0  0999 V2000
   -8.2851   -0.3329  -21.3743 O   0  0  0  0  0  0  0  0  0  0  0  0
   -8.4152   -0.5609  -22.8512 C   0  0  0  0  0  0  0  0  0  0  0  0
   -8.0595   -1.8946  -23.4384 N   0  0  0  0  0  0  0  0  0  0  0  0
   -8.1896   -2.1226  -24.9152 C   0  0  0  0  0  0  0  0  0  0  0  0
   -7.8338   -3.4562  -25.5024 C   0  0  0  0  0  0  0  0  0  0  0  0
   -7.3479   -4.5619  -24.6128 C   0  0  0  0  0  0  0  0  0  0  0  0
   -6.9922   -5.8955  -25.2000 C   0  0  0  0  0  0  0  0  0  0  0  0
   -6.5063   -7.0012  -24.3103 C   0  0  0  0  0  0  0  0  0  0  0  0
   -6.3762   -6.7732  -22.8335 C   0  0  0  0  0  0  0  0  0  0  0  0
   -6.0878   -7.0406  -21.3860 F   0  0  0  0  0  0  0  0  0  0  0  0
   -5.9203   -8.1996  -22.9180 F   0  0  0  0  0  0  0  0  0  0  0  0
   -6.7320   -5.4395  -22.2463 C   0  0  0  0  0  0  0  0  0  0  0  0
   -7.2178   -4.3339  -23.1359 C   0  0  0  0  0  0  0  0  0  0  0  0
   -7.5736   -3.0002  -22.5487 C   0  0  0  0  0  0  0  0  0  0  0  0
   -8.9011    0.5447  -23.7408 C   0  0  0  0  0  0  0  0  0  0  0  0
  -10.3360    0.9780  -23.6833 C   0  0  0  0  0  0  0  0  0  0  0  0
  -10.6985    2.4093  -23.9477 C   0  0  0  0  0  0  0  0  0  0  0  0
  -12.1334    2.8425  -23.8902 N   0  0  0  0  0  0  0  0  0  0  0  0
  -13.2058    1.8445  -23.5682 C   0  0  0  0  0  0  0  0  0  0  0  0
  -12.8434    0.4131  -23.3037 C   0  0  0  0  0  0  0  0  0  0  0  0
  -13.9159   -0.5849  -22.9817 C   0  0  0  0  0  0  0  0  0  0  0  0
  -13.5534   -2.0162  -22.7172 C   0  0  0  0  0  0  0  0  0  0  0  0
  -12.1185   -2.4495  -22.7748 C   0  0  0  0  0  0  0  0  0  0  0  0
  -11.0460   -1.4514  -23.0968 C   0  0  0  0  0  0  0  0  0  0  0  0
  -11.4085   -0.0201  -23.3612 C   0  0  0  0  0  0  0  0  0  0  0  0
  1  2  2  0  0  0
  2 15  1  0  0  0
 15 16  1  0  0  0
 16 17  2  0  0  0
 17 18  1  0  0  0
 18 19  2  0  0  0
 19 20  1  0  0  0
 20 21  2  0  0  0
 21 22  1  0  0  0
 22 23  2  0  0  0
 23 24  1  0  0  0
 24 25  2  0  0  0
  2  3  1  0  0  0
  3  4  1  0  0  0
  4  5  1  0  0  0
  6  5  1  0  0  0
  6  7  1  0  0  0
  7  8  1  0  0  0
  8  9  1  0  0  0
  9 10  1  0  0  0
  9 11  1  0  0  0
  9 12  1  0  0  0
 13 12  1  0  0  0
 13 14  1  0  0  0
 25 16  1  0  0  0
 14  3  1  0  0  0
 25 20  1  0  0  0
 13  6  1  0  0  0
M  END
> <minimizedAffinity>
-6.98266

> <CNNscore>
0.5013880134

> <CNNaffinity>
5.6913557053

> <CNN_VS>
2.8535776138

> <CNNaffinity_variance>
0.1260136366

$$$$



 25 28  0  0  0  0  0  0  0  0999 V2000
   -8.3333   -0.7422  -20.7953 O   0  0  0  0  0  0  0  0  0  0  0  0
   -7.7627   -0.8589  -22.1777 C   0  0  0  0  0  0  0  0  0  0  0  0
   -6.3528   -0.4231  -22.4464 N   0  0  0  0  0  0  0  0  0  0  0  0
   -5.7822   -0.5398  -23.8286 C   0  0  0  0  0  0  0  0  0  0  0  0
   -4.3723   -0.1039  -24.0973 C   0  0  0  0  0  0  0  0  0  0  0  0
   -3.5330    0.4486  -22.9837 C   0  0  0  0  0  0  0  0  0  0  0  0
   -2.1231    0.8845  -23.2524 C   0  0  0  0  0  0  0  0  0  0  0  0
   -1.2837    1.4370  -22.1386 C   0  0  0  0  0  0  0  0  0  0  0  0
   -1.8543    1.5537  -20.7564 C   0  0  0  0  0  0  0  0  0  0  0  0
   -1.9464    1.8585  -19.2906 F   0  0  0  0  0  0  0  0  0  0  0  0
   -0.4764    2.0954  -20.5160 F   0  0  0  0  0  0  0  0  0  0  0  0
   -3.2642    1.1179  -20.4877 C   0  0  0  0  0  0  0  0  0  0  0  0
   -4.1036    0.5653  -21.6013 C   0  0  0  0  0  0  0  0  0  0  0  0
   -5.5135    0.1295  -21.3326 C   0  0  0  0  0  0  0  0  0  0  0  0
   -8.6021   -1.4114  -23.2913 C   0  0  0  0  0  0  0  0  0  0  0  0
  -10.0937   -1.4740  -23.1462 C   0  0  0  0  0  0  0  0  0  0  0  0
  -10.7587   -2.7700  -22.7883 C   0  0  0  0  0  0  0  0  0  0  0  0
  -12.2504   -2.8326  -22.6433 N   0  0  0  0  0  0  0  0  0  0  0  0
  -13.0770   -1.5992  -22.8561 C   0  0  0  0  0  0  0  0  0  0  0  0
  -12.4120   -0.3031  -23.2140 C   0  0  0  0  0  0  0  0  0  0  0  0
  -13.2386    0.9303  -23.4268 C   0  0  0  0  0  0  0  0  0  0  0  0
  -12.5736    2.2263  -23.7847 C   0  0  0  0  0  0  0  0  0  0  0  0
  -11.0820    2.2889  -23.9298 C   0  0  0  0  0  0  0  0  0  0  0  0
  -10.2553    1.0555  -23.7170 C   0  0  0  0  0  0  0  0  0  0  0  0
  -10.9204   -0.2405  -23.3591 C   0  0  0  0  0  0  0  0  0  0  0  0
  1  2  2  0  0  0
  2 15  1  0  0  0
 15 16  1  0  0  0
 16 17  2  0  0  0
 17 18  1  0  0  0
 18 19  2  0  0  0
 19 20  1  0  0  0
 20 21  2  0  0  0
 21 22  1  0  0  0
 22 23  2  0  0  0
 23 24  1  0  0  0
 24 25  2  0  0  0
  2  3  1  0  0  0
  3  4  1  0  0  0
  4  5  1  0  0  0
  6  5  1  0  0  0
  6  7  1  0  0  0
  7  8  1  0  0  0
  8  9  1  0  0  0
  9 10  1  0  0  0
  9 11  1  0  0  0
  9 12  1  0  0  0
 13 12  1  0  0  0
 13 14  1  0  0  0
 25 16  1  0  0  0
 14  3  1  0  0  0
 25 20  1  0  0  0
 13  6  1  0  0  0
M  END
> <minimizedAffinity>
-6.89449

> <CNNscore>
0.3945716918

> <CNNaffinity>
5.2108855247

> <CNN_VS>
2.0560679436

> <CNNaffinity_variance>
0.0568083301

$$$$



 25 28  0  0  0  0  0  0  0  0999 V2000
   -5.1114   -3.3531  -20.6531 O   0  0  0  0  0  0  0  0  0  0  0  0
   -6.1929   -2.3798  -21.0180 C   0  0  0  0  0  0  0  0  0  0  0  0
   -7.2002   -2.7377  -22.0703 N   0  0  0  0  0  0  0  0  0  0  0  0
   -8.2816   -1.7644  -22.4352 C   0  0  0  0  0  0  0  0  0  0  0  0
   -9.2889   -2.1223  -23.4875 C   0  0  0  0  0  0  0  0  0  0  0  0
   -9.2147   -3.4535  -24.1749 C   0  0  0  0  0  0  0  0  0  0  0  0
  -10.2220   -3.8114  -25.2272 C   0  0  0  0  0  0  0  0  0  0  0  0
  -10.1478   -5.1426  -25.9145 C   0  0  0  0  0  0  0  0  0  0  0  0
   -9.0664   -6.1158  -25.5496 C   0  0  0  0  0  0  0  0  0  0  0  0
   -8.2344   -7.3639  -25.5502 F   0  0  0  0  0  0  0  0  0  0  0  0
   -9.7847   -6.9072  -26.6021 F   0  0  0  0  0  0  0  0  0  0  0  0
   -8.0591   -5.7579  -24.4973 C   0  0  0  0  0  0  0  0  0  0  0  0
   -8.1333   -4.4268  -23.8099 C   0  0  0  0  0  0  0  0  0  0  0  0
   -7.1260   -4.0689  -22.7577 C   0  0  0  0  0  0  0  0  0  0  0  0
   -6.2671   -1.0487  -20.3306 C   0  0  0  0  0  0  0  0  0  0  0  0
   -5.0762   -0.1366  -20.3318 C   0  0  0  0  0  0  0  0  0  0  0  0
   -4.6439    0.5341  -19.0617 C   0  0  0  0  0  0  0  0  0  0  0  0
   -3.4531    1.4462  -19.0629 N   0  0  0  0  0  0  0  0  0  0  0  0
   -2.6946    1.6876  -20.3342 C   0  0  0  0  0  0  0  0  0  0  0  0
   -3.1268    1.0169  -21.6044 C   0  0  0  0  0  0  0  0  0  0  0  0
   -2.3683    1.2583  -22.8757 C   0  0  0  0  0  0  0  0  0  0  0  0
   -2.8005    0.5876  -24.1458 C   0  0  0  0  0  0  0  0  0  0  0  0
   -3.9914   -0.3245  -24.1447 C   0  0  0  0  0  0  0  0  0  0  0  0
   -4.7499   -0.5659  -22.8734 C   0  0  0  0  0  0  0  0  0  0  0  0
   -4.3177    0.1048  -21.6032 C   0  0  0  0  0  0  0  0  0  0  0  0
  1  2  2  0  0  0
  2 15  1  0  0  0
 15 16  1  0  0  0
 16 17  2  0  0  0
 17 18  1  0  0  0
 18 19  2  0  0  0
 19 20  1  0  0  0
 20 21  2  0  0  0
 21 22  1  0  0  0
 22 23  2  0  0  0
 23 24  1  0  0  0
 24 25  2  0  0  0
  2  3  1  0  0  0
  3  4  1  0  0  0
  4  5  1  0  0  0
  6  5  1  0  0  0
  6  7  1  0  0  0
  7  8  1  0  0  0
  8  9  1  0  0  0
  9 10  1  0  0  0
  9 11  1  0  0  0
  9 12  1  0  0  0
 13 12  1  0  0  0
 13 14  1  0  0  0
 25 16  1  0  0  0
 14  3  1  0  0  0
 25 20  1  0  0  0
 13  6  1  0  0  0
M  END
> <minimizedAffinity>
-7.33957

> <CNNscore>
0.3899178207

> <CNNaffinity>
5.1668190956

> <CNN_VS>
2.0146348476

> <CNNaffinity_variance>
0.4867605567

$$$$



 25 28  0  0  0  0  0  0  0  0999 V2000
   -6.1693   -3.0645  -22.1018 O   0  0  0  0  0  0  0  0  0  0  0  0
   -6.3134   -1.6660  -22.6247 C   0  0  0  0  0  0  0  0  0  0  0  0
   -7.6780   -1.0956  -22.8748 N   0  0  0  0  0  0  0  0  0  0  0  0
   -7.8221    0.3028  -23.3977 C   0  0  0  0  0  0  0  0  0  0  0  0
   -9.1867    0.8732  -23.6478 C   0  0  0  0  0  0  0  0  0  0  0  0
  -10.4072    0.0450  -23.3750 C   0  0  0  0  0  0  0  0  0  0  0  0
  -11.7719    0.6154  -23.6250 C   0  0  0  0  0  0  0  0  0  0  0  0
  -12.9924   -0.2128  -23.3522 C   0  0  0  0  0  0  0  0  0  0  0  0
  -12.8483   -1.6113  -22.8293 C   0  0  0  0  0  0  0  0  0  0  0  0
  -13.2234   -2.9764  -22.3334 F   0  0  0  0  0  0  0  0  0  0  0  0
  -14.3432   -1.5150  -22.9071 F   0  0  0  0  0  0  0  0  0  0  0  0
  -11.4837   -2.1816  -22.5792 C   0  0  0  0  0  0  0  0  0  0  0  0
  -10.2632   -1.3535  -22.8520 C   0  0  0  0  0  0  0  0  0  0  0  0
   -8.8986   -1.9238  -22.6019 C   0  0  0  0  0  0  0  0  0  0  0  0
   -5.0929   -0.8378  -22.8976 C   0  0  0  0  0  0  0  0  0  0  0  0
   -4.4567   -0.0519  -21.7896 C   0  0  0  0  0  0  0  0  0  0  0  0
   -5.0773   -0.0433  -20.4240 C   0  0  0  0  0  0  0  0  0  0  0  0
   -4.4411    0.7426  -19.3160 N   0  0  0  0  0  0  0  0  0  0  0  0
   -3.1843    1.5199  -19.5736 C   0  0  0  0  0  0  0  0  0  0  0  0
   -2.5637    1.5113  -20.9392 C   0  0  0  0  0  0  0  0  0  0  0  0
   -1.3069    2.2885  -21.1967 C   0  0  0  0  0  0  0  0  0  0  0  0
   -0.6863    2.2799  -22.5623 C   0  0  0  0  0  0  0  0  0  0  0  0
   -1.3225    1.4940  -23.6703 C   0  0  0  0  0  0  0  0  0  0  0  0
   -2.5793    0.7167  -23.4127 C   0  0  0  0  0  0  0  0  0  0  0  0
   -3.1999    0.7253  -22.0472 C   0  0  0  0  0  0  0  0  0  0  0  0
  1  2  2  0  0  0
  2 15  1  0  0  0
 15 16  1  0  0  0
 16 17  2  0  0  0
 17 18  1  0  0  0
 18 19  2  0  0  0
 19 20  1  0  0  0
 20 21  2  0  0  0
 21 22  1  0  0  0
 22 23  2  0  0  0
 23 24  1  0  0  0
 24 25  2  0  0  0
  2  3  1  0  0  0
  3  4  1  0  0  0
  4  5  1  0  0  0
  6  5  1  0  0  0
  6  7  1  0  0  0
  7  8  1  0  0  0
  8  9  1  0  0  0
  9 10  1  0  0  0
  9 11  1  0  0  0
  9 12  1  0  0  0
 13 12  1  0  0  0
 13 14  1  0  0  0
 25 16  1  0  0  0
 14  3  1  0  0  0
 25 20  1  0  0  0
 13  6  1  0  0  0
M  END
> <minimizedAffinity>
-7.01796

> <CNNscore>
0.3831301928

> <CNNaffinity>
5.2106642723

> <CNN_VS>
1.9963628054

> <CNNaffinity_variance>
0.1204255819

$$$$



 25 28  0  0  0  0  0  0  0  0999 V2000
   -5.7288   -3.3478  -21.3930 O   0  0  0  0  0  0  0  0  0  0  0  0
   -6.8239   -2.5288  -22.0095 C   0  0  0  0  0  0  0  0  0  0  0  0
   -7.4718   -2.9812  -23.2844 N   0  0  0  0  0  0  0  0  0  0  0  0
   -8.5669   -2.1622  -23.9009 C   0  0  0  0  0  0  0  0  0  0  0  0
   -9.2148   -2.6146  -25.1759 C   0  0  0  0  0  0  0  0  0  0  0  0
   -8.7678   -3.8861  -25.8343 C   0  0  0  0  0  0  0  0  0  0  0  0
   -9.4158   -4.3385  -27.1092 C   0  0  0  0  0  0  0  0  0  0  0  0
   -8.9687   -5.6100  -27.7676 C   0  0  0  0  0  0  0  0  0  0  0  0
   -7.8736   -6.4290  -27.1511 C   0  0  0  0  0  0  0  0  0  0  0  0
   -6.8843   -7.5390  -26.9536 F   0  0  0  0  0  0  0  0  0  0  0  0
   -8.1780   -7.2669  -28.3574 F   0  0  0  0  0  0  0  0  0  0  0  0
   -7.2257   -5.9766  -25.8762 C   0  0  0  0  0  0  0  0  0  0  0  0
   -7.6727   -4.7051  -25.2178 C   0  0  0  0  0  0  0  0  0  0  0  0
   -7.0247   -4.2527  -23.9429 C   0  0  0  0  0  0  0  0  0  0  0  0
   -7.2709   -1.2573  -21.3511 C   0  0  0  0  0  0  0  0  0  0  0  0
   -6.4468   -0.6506  -20.2544 C   0  0  0  0  0  0  0  0  0  0  0  0
   -6.8674   -0.8112  -18.8236 C   0  0  0  0  0  0  0  0  0  0  0  0
   -6.0433   -0.2045  -17.7270 N   0  0  0  0  0  0  0  0  0  0  0  0
   -4.7985    0.5628  -18.0611 C   0  0  0  0  0  0  0  0  0  0  0  0
   -4.3778    0.7234  -19.4919 C   0  0  0  0  0  0  0  0  0  0  0  0
   -3.1329    1.4907  -19.8261 C   0  0  0  0  0  0  0  0  0  0  0  0
   -2.7123    1.6513  -21.2569 C   0  0  0  0  0  0  0  0  0  0  0  0
   -3.5365    1.0446  -22.3535 C   0  0  0  0  0  0  0  0  0  0  0  0
   -4.7813    0.2773  -22.0194 C   0  0  0  0  0  0  0  0  0  0  0  0
   -5.2019    0.1167  -20.5886 C   0  0  0  0  0  0  0  0  0  0  0  0
  1  2  2  0  0  0
  2 15  1  0  0  0
 15 16  1  0  0  0
 16 17  2  0  0  0
 17 18  1  0  0  0
 18 19  2  0  0  0
 19 20  1  0  0  0
 20 21  2  0  0  0
 21 22  1  0  0  0
 22 23  2  0  0  0
 23 24  1  0  0  0
 24 25  2  0  0  0
  2  3  1  0  0  0
  3  4  1  0  0  0
  4  5  1  0  0  0
  6  5  1  0  0  0
  6  7  1  0  0  0
  7  8  1  0  0  0
  8  9  1  0  0  0
  9 10  1  0  0  0
  9 11  1  0  0  0
  9 12  1  0  0  0
 13 12  1  0  0  0
 13 14  1  0  0  0
 25 16  1  0  0  0
 14  3  1  0  0  0
 25 20  1  0  0  0
 13  6  1  0  0  0
M  END
> <minimizedAffinity>
-7.03075

> <CNNscore>
0.3495038152

> <CNNaffinity>
5.2328433990

> <CNN_VS>
1.8288987875

> <CNNaffinity_variance>
0.0775001645

$$$$



 25 28  0  0  0  0  0  0  0  0999 V2000
   -6.1777   -3.0438  -22.5919 O   0  0  0  0  0  0  0  0  0  0  0  0
   -6.3591   -1.6228  -23.0370 C   0  0  0  0  0  0  0  0  0  0  0  0
   -7.7389   -1.0512  -23.1772 N   0  0  0  0  0  0  0  0  0  0  0  0
   -7.9204    0.3697  -23.6222 C   0  0  0  0  0  0  0  0  0  0  0  0
   -9.3001    0.9413  -23.7624 C   0  0  0  0  0  0  0  0  0  0  0  0
  -10.4983    0.0920  -23.4576 C   0  0  0  0  0  0  0  0  0  0  0  0
  -11.8780    0.6636  -23.5978 C   0  0  0  0  0  0  0  0  0  0  0  0
  -13.0762   -0.1857  -23.2930 C   0  0  0  0  0  0  0  0  0  0  0  0
  -12.8947   -1.6066  -22.8479 C   0  0  0  0  0  0  0  0  0  0  0  0
  -13.2332   -2.9967  -22.3972 F   0  0  0  0  0  0  0  0  0  0  0  0
  -14.3920   -1.5178  -22.8316 F   0  0  0  0  0  0  0  0  0  0  0  0
  -11.5150   -2.1782  -22.7077 C   0  0  0  0  0  0  0  0  0  0  0  0
  -10.3168   -1.3290  -23.0125 C   0  0  0  0  0  0  0  0  0  0  0  0
   -8.9371   -1.9006  -22.8723 C   0  0  0  0  0  0  0  0  0  0  0  0
   -5.1609   -0.7736  -23.3418 C   0  0  0  0  0  0  0  0  0  0  0  0
   -4.4745   -0.0219  -22.2401 C   0  0  0  0  0  0  0  0  0  0  0  0
   -3.2931    0.8491  -22.5492 C   0  0  0  0  0  0  0  0  0  0  0  0
   -2.6066    1.6007  -21.4475 N   0  0  0  0  0  0  0  0  0  0  0  0
   -3.1015    1.4813  -20.0366 C   0  0  0  0  0  0  0  0  0  0  0  0
   -4.2830    0.6102  -19.7273 C   0  0  0  0  0  0  0  0  0  0  0  0
   -4.7779    0.4908  -18.3164 C   0  0  0  0  0  0  0  0  0  0  0  0
   -5.9593   -0.3802  -18.0072 C   0  0  0  0  0  0  0  0  0  0  0  0
   -6.6457   -1.1318  -19.1090 C   0  0  0  0  0  0  0  0  0  0  0  0
   -6.1508   -1.0124  -20.5199 C   0  0  0  0  0  0  0  0  0  0  0  0
   -4.9694   -0.1414  -20.8291 C   0  0  0  0  0  0  0  0  0  0  0  0
  1  2  2  0  0  0
  2 15  1  0  0  0
 15 16  1  0  0  0
 16 17  2  0  0  0
 17 18  1  0  0  0
 18 19  2  0  0  0
 19 20  1  0  0  0
 20 21  2  0  0  0
 21 22  1  0  0  0
 22 23  2  0  0  0
 23 24  1  0  0  0
 24 25  2  0  0  0
  2  3  1  0  0  0
  3  4  1  0  0  0
  4  5  1  0  0  0
  6  5  1  0  0  0
  6  7  1  0  0  0
  7  8  1  0  0  0
  8  9  1  0  0  0
  9 10  1  0  0  0
  9 11  1  0  0  0
  9 12  1  0  0  0
 13 12  1  0  0  0
 13 14  1  0  0  0
 25 16  1  0  0  0
 14  3  1  0  0  0
 25 20  1  0  0  0
 13  6  1  0  0  0
M  END
> <minimizedAffinity>
-7.77143

> <CNNscore>
0.3216223419

> <CNNaffinity>
5.1702165604

> <CNN_VS>
1.6628571749

> <CNNaffinity_variance>
0.4375546873

$$$$
