


 36 40  0  0  0  0  0  0  0  0999 V2000
   -7.4588   -1.3678  -23.7698 N   0  0  0  0  0  0  0  0  0  0  0  0
   -7.8277    0.0762  -23.9395 C   0  0  0  0  0  0  0  0  0  0  0  0
   -9.2578    0.5064  -23.8001 C   0  0  0  0  0  0  0  0  0  0  0  0
  -10.6384    1.0826  -23.6903 C   0  0  0  0  0  0  0  0  0  0  0  0
  -11.7800    0.7287  -23.4715 O   0  0  0  0  0  0  0  0  0  0  0  0
  -10.5447    2.5601  -23.9317 N   0  0  0  0  0  0  0  0  0  0  0  0
   -9.1061    2.8971  -24.1907 C   0  0  0  0  0  0  0  0  0  0  0  0
   -8.3108    1.6278  -24.1093 C   0  0  0  0  0  0  0  0  0  0  0  0
  -10.3193   -0.5074  -23.4910 C   0  0  0  0  0  0  0  0  0  0  0  0
  -11.7495   -0.0773  -23.3516 C   0  0  0  0  0  0  0  0  0  0  0  0
  -12.8108   -1.0911  -23.0425 C   0  0  0  0  0  0  0  0  0  0  0  0
  -14.2411   -0.6610  -22.9030 Cl  0  0  0  0  0  0  0  0  0  0  0  0
  -12.4420   -2.5351  -22.8728 C   0  0  0  0  0  0  0  0  0  0  0  0
  -11.0118   -2.9653  -23.0122 C   0  0  0  0  0  0  0  0  0  0  0  0
   -9.9505   -1.9515  -23.3213 C   0  0  0  0  0  0  0  0  0  0  0  0
   -8.5202   -2.3816  -23.4607 C   0  0  0  0  0  0  0  0  0  0  0  0
   -8.1514   -3.8256  -23.2910 O   0  0  0  0  0  0  0  0  0  0  0  0
  -11.6886    3.5302  -23.9168 C   0  0  0  0  0  0  0  0  0  0  0  0
  -12.4947    3.7201  -22.6661 C   0  0  0  0  0  0  0  0  0  0  0  0
  -13.6386    4.6903  -22.6511 N   0  0  0  0  0  0  0  0  0  0  0  0
  -13.9765    5.4705  -23.8869 C   0  0  0  0  0  0  0  0  0  0  0  0
  -13.1704    5.2805  -25.1376 C   0  0  0  0  0  0  0  0  0  0  0  0
  -13.5083    6.0608  -26.3734 C   0  0  0  0  0  0  0  0  0  0  0  0
  -12.7022    5.8708  -27.6240 C   0  0  0  0  0  0  0  0  0  0  0  0
  -11.5583    4.9007  -27.6390 C   0  0  0  0  0  0  0  0  0  0  0  0
  -11.2204    4.1205  -26.4032 C   0  0  0  0  0  0  0  0  0  0  0  0
  -12.0265    4.3104  -25.1525 C   0  0  0  0  0  0  0  0  0  0  0  0
   -6.0286   -1.7979  -23.9092 C   0  0  0  0  0  0  0  0  0  0  0  0
   -4.9474   -4.9963  -25.9953 C   0  0  0  0  0  0  0  0  0  0  0  0
   -5.3606   -4.1282  -24.8439 N   0  0  0  0  0  0  0  0  0  0  0  0
   -5.6153   -2.6660  -25.0606 C   0  0  0  0  0  0  0  0  0  0  0  0
   -5.4568   -2.0718  -26.4288 O   0  0  0  0  0  0  0  0  0  0  0  0
   -5.4647   -4.5182  -23.9459 H   0  0  0  0  0  0  0  0  0  0  0  0
   -6.8287    1.5021  -24.3031 C   0  0  0  0  0  0  0  0  0  0  0  0
   -5.8970    2.4350  -23.5880 O   0  0  0  0  0  0  0  0  0  0  0  0
   -6.3304    3.0970  -22.3137 C   0  0  0  0  0  0  0  0  0  0  0  0
 29 30  1  0  0  0
 30 31  1  0  0  0
 31 32  2  0  0  0
 31 28  1  0  0  0
 28  1  1  0  0  0
  1  2  1  0  0  0
  3  2  1  0  0  0
  3  4  1  0  0  0
  4  5  2  0  0  0
  4  6  1  0  0  0
  6 18  1  0  0  0
 18 19  2  0  0  0
 19 20  1  0  0  0
 20 21  2  0  0  0
 21 22  1  0  0  0
 22 23  2  0  0  0
 23 24  1  0  0  0
 24 25  2  0  0  0
 25 26  1  0  0  0
 26 27  2  0  0  0
  6  7  1  0  0  0
  7  8  1  0  0  0
  8 34  1  0  0  0
 34 35  1  0  0  0
 35 36  1  0  0  0
  3  9  1  0  0  0
  9 10  2  0  0  0
 10 11  1  0  0  0
 11 12  1  0  0  0
 11 13  2  0  0  0
 13 14  1  0  0  0
 14 15  2  0  0  0
 15 16  1  0  0  0
 16 17  2  0  0  0
 16  1  1  0  0  0
  8  3  1  0  0  0
 15  9  1  0  0  0
 27 18  1  0  0  0
 27 22  1  0  0  0
 30 33  1  0  0  0
M  END
> <minimizedAffinity>
-6.78892

> <CNNscore>
0.8688385487

> <CNNaffinity>
6.7123832703

> <CNN_VS>
5.8319773674

> <CNNaffinity_variance>
0.0452767611

$$$$



 36 40  0  0  0  0  0  0  0  0999 V2000
   -6.9624   -0.7693  -22.8943 N   0  0  0  0  0  0  0  0  0  0  0  0
   -7.4371    0.6295  -23.1550 C   0  0  0  0  0  0  0  0  0  0  0  0
   -8.9046    0.9115  -23.2852 C   0  0  0  0  0  0  0  0  0  0  0  0
  -10.3328    1.3437  -23.4383 C   0  0  0  0  0  0  0  0  0  0  0  0
  -11.4538    0.8752  -23.4235 O   0  0  0  0  0  0  0  0  0  0  0  0
  -10.3454    2.8231  -23.6862 N   0  0  0  0  0  0  0  0  0  0  0  0
   -8.9250    3.3051  -23.6864 C   0  0  0  0  0  0  0  0  0  0  0  0
   -8.0345    2.1237  -23.4385 C   0  0  0  0  0  0  0  0  0  0  0  0
   -9.8974   -0.2054  -23.1547 C   0  0  0  0  0  0  0  0  0  0  0  0
  -11.3649    0.0766  -23.2849 C   0  0  0  0  0  0  0  0  0  0  0  0
  -12.3576   -1.0403  -23.1545 C   0  0  0  0  0  0  0  0  0  0  0  0
  -13.8252   -0.7584  -23.2847 Cl  0  0  0  0  0  0  0  0  0  0  0  0
  -11.8829   -2.4391  -22.8938 C   0  0  0  0  0  0  0  0  0  0  0  0
  -10.4154   -2.7211  -22.7636 C   0  0  0  0  0  0  0  0  0  0  0  0
   -9.4227   -1.6042  -22.8941 C   0  0  0  0  0  0  0  0  0  0  0  0
   -7.9551   -1.8861  -22.7639 C   0  0  0  0  0  0  0  0  0  0  0  0
   -7.4804   -3.2849  -22.5032 O   0  0  0  0  0  0  0  0  0  0  0  0
  -11.5644    3.6714  -23.8970 C   0  0  0  0  0  0  0  0  0  0  0  0
  -12.5292    3.8913  -22.7697 C   0  0  0  0  0  0  0  0  0  0  0  0
  -13.7482    4.7396  -22.9805 N   0  0  0  0  0  0  0  0  0  0  0  0
  -14.0024    5.3679  -24.3186 C   0  0  0  0  0  0  0  0  0  0  0  0
  -13.0376    5.1480  -25.4459 C   0  0  0  0  0  0  0  0  0  0  0  0
  -13.2918    5.7763  -26.7841 C   0  0  0  0  0  0  0  0  0  0  0  0
  -12.3270    5.5563  -27.9114 C   0  0  0  0  0  0  0  0  0  0  0  0
  -11.1080    4.7080  -27.7006 C   0  0  0  0  0  0  0  0  0  0  0  0
  -10.8538    4.0797  -26.3625 C   0  0  0  0  0  0  0  0  0  0  0  0
  -11.8186    4.2997  -25.2351 C   0  0  0  0  0  0  0  0  0  0  0  0
   -5.4949   -1.0512  -22.7641 C   0  0  0  0  0  0  0  0  0  0  0  0
   -2.8072    1.1814  -20.8821 C   0  0  0  0  0  0  0  0  0  0  0  0
   -3.5981    0.5448  -21.9863 N   0  0  0  0  0  0  0  0  0  0  0  0
   -4.7040   -0.4146  -21.6599 C   0  0  0  0  0  0  0  0  0  0  0  0
   -5.0190   -0.7375  -20.2293 O   0  0  0  0  0  0  0  0  0  0  0  0
   -3.3913    0.7567  -22.9252 H   0  0  0  0  0  0  0  0  0  0  0  0
   -6.5369    2.1499  -23.3581 C   0  0  0  0  0  0  0  0  0  0  0  0
   -5.7919    3.4173  -23.6555 O   0  0  0  0  0  0  0  0  0  0  0  0
   -5.5027    4.3935  -22.5540 C   0  0  0  0  0  0  0  0  0  0  0  0
 29 30  1  0  0  0
 30 31  1  0  0  0
 31 32  2  0  0  0
 31 28  1  0  0  0
 28  1  1  0  0  0
  1  2  1  0  0  0
  3  2  1  0  0  0
  3  4  1  0  0  0
  4  5  2  0  0  0
  4  6  1  0  0  0
  6 18  1  0  0  0
 18 19  2  0  0  0
 19 20  1  0  0  0
 20 21  2  0  0  0
 21 22  1  0  0  0
 22 23  2  0  0  0
 23 24  1  0  0  0
 24 25  2  0  0  0
 25 26  1  0  0  0
 26 27  2  0  0  0
  6  7  1  0  0  0
  7  8  1  0  0  0
  8 34  1  0  0  0
 34 35  1  0  0  0
 35 36  1  0  0  0
  3  9  1  0  0  0
  9 10  2  0  0  0
 10 11  1  0  0  0
 11 12  1  0  0  0
 11 13  2  0  0  0
 13 14  1  0  0  0
 14 15  2  0  0  0
 15 16  1  0  0  0
 16 17  2  0  0  0
 16  1  1  0  0  0
  8  3  1  0  0  0
 15  9  1  0  0  0
 27 18  1  0  0  0
 27 22  1  0  0  0
 30 33  1  0  0  0
M  END
> <minimizedAffinity>
-7.26898

> <CNNscore>
0.6923412085

> <CNNaffinity>
6.5750093460

> <CNN_VS>
4.5521497726

> <CNNaffinity_variance>
0.1397208422

$$$$



 36 40  0  0  0  0  0  0  0  0999 V2000
   -9.2127    2.6710  -24.5907 N   0  0  0  0  0  0  0  0  0  0  0  0
   -8.2884    1.4927  -24.6760 C   0  0  0  0  0  0  0  0  0  0  0  0
   -8.7914    0.1193  -24.3433 C   0  0  0  0  0  0  0  0  0  0  0  0
   -9.1497   -1.3060  -24.0429 C   0  0  0  0  0  0  0  0  0  0  0  0
  -10.1025   -1.9712  -23.6879 O   0  0  0  0  0  0  0  0  0  0  0  0
   -7.9263   -2.1468  -24.2579 N   0  0  0  0  0  0  0  0  0  0  0  0
   -6.8118   -1.2412  -24.6913 C   0  0  0  0  0  0  0  0  0  0  0  0
   -7.3465    0.1593  -24.7441 C   0  0  0  0  0  0  0  0  0  0  0  0
  -10.2188   -0.0759  -23.9254 C   0  0  0  0  0  0  0  0  0  0  0  0
  -10.7218   -1.4493  -23.5927 C   0  0  0  0  0  0  0  0  0  0  0  0
  -12.1490   -1.6444  -23.1748 C   0  0  0  0  0  0  0  0  0  0  0  0
  -12.6521   -3.0179  -22.8421 Cl  0  0  0  0  0  0  0  0  0  0  0  0
  -13.0734   -0.4661  -23.0895 C   0  0  0  0  0  0  0  0  0  0  0  0
  -12.5704    0.9073  -23.4221 C   0  0  0  0  0  0  0  0  0  0  0  0
  -11.1431    1.1024  -23.8401 C   0  0  0  0  0  0  0  0  0  0  0  0
  -10.6400    2.4759  -24.1728 C   0  0  0  0  0  0  0  0  0  0  0  0
  -11.5643    3.6542  -24.0875 O   0  0  0  0  0  0  0  0  0  0  0  0
   -7.8336   -3.6323  -24.0722 C   0  0  0  0  0  0  0  0  0  0  0  0
   -7.2132   -4.1954  -22.8279 C   0  0  0  0  0  0  0  0  0  0  0  0
   -7.1205   -5.6810  -22.6422 N   0  0  0  0  0  0  0  0  0  0  0  0
   -7.6482   -6.6035  -23.7007 C   0  0  0  0  0  0  0  0  0  0  0  0
   -8.2686   -6.0404  -24.9450 C   0  0  0  0  0  0  0  0  0  0  0  0
   -8.7963   -6.9630  -26.0035 C   0  0  0  0  0  0  0  0  0  0  0  0
   -9.4167   -6.3998  -27.2477 C   0  0  0  0  0  0  0  0  0  0  0  0
   -9.5094   -4.9143  -27.4335 C   0  0  0  0  0  0  0  0  0  0  0  0
   -8.9817   -3.9918  -26.3749 C   0  0  0  0  0  0  0  0  0  0  0  0
   -8.3613   -4.5548  -25.1307 C   0  0  0  0  0  0  0  0  0  0  0  0
   -8.7097    4.0445  -24.9234 C   0  0  0  0  0  0  0  0  0  0  0  0
   -6.7609    6.0281  -22.0918 C   0  0  0  0  0  0  0  0  0  0  0  0
   -7.0556    5.0507  -23.1909 N   0  0  0  0  0  0  0  0  0  0  0  0
   -8.4150    5.0218  -23.8243 C   0  0  0  0  0  0  0  0  0  0  0  0
   -9.4797    5.9703  -23.3587 O   0  0  0  0  0  0  0  0  0  0  0  0
   -6.3568    4.4282  -23.4965 H   0  0  0  0  0  0  0  0  0  0  0  0
   -6.5722    1.3847  -25.1299 C   0  0  0  0  0  0  0  0  0  0  0  0
   -5.1545    1.5520  -24.6693 O   0  0  0  0  0  0  0  0  0  0  0  0
   -4.8697    2.0180  -23.2723 C   0  0  0  0  0  0  0  0  0  0  0  0
 29 30  1  0  0  0
 30 31  1  0  0  0
 31 32  2  0  0  0
 31 28  1  0  0  0
 28  1  1  0  0  0
  1  2  1  0  0  0
  3  2  1  0  0  0
  3  4  1  0  0  0
  4  5  2  0  0  0
  4  6  1  0  0  0
  6 18  1  0  0  0
 18 19  2  0  0  0
 19 20  1  0  0  0
 20 21  2  0  0  0
 21 22  1  0  0  0
 22 23  2  0  0  0
 23 24  1  0  0  0
 24 25  2  0  0  0
 25 26  1  0  0  0
 26 27  2  0  0  0
  6  7  1  0  0  0
  7  8  1  0  0  0
  8 34  1  0  0  0
 34 35  1  0  0  0
 35 36  1  0  0  0
  3  9  1  0  0  0
  9 10  2  0  0  0
 10 11  1  0  0  0
 11 12  1  0  0  0
 11 13  2  0  0  0
 13 14  1  0  0  0
 14 15  2  0  0  0
 15 16  1  0  0  0
 16 17  2  0  0  0
 16  1  1  0  0  0
  8  3  1  0  0  0
 15  9  1  0  0  0
 27 18  1  0  0  0
 27 22  1  0  0  0
 30 33  1  0  0  0
M  END
> <minimizedAffinity>
-6.94353

> <CNNscore>
0.4015090764

> <CNNaffinity>
6.2312364578

> <CNN_VS>
2.5018980503

> <CNNaffinity_variance>
0.1577749699

$$$$



 36 40  0  0  0  0  0  0  0  0999 V2000
  -10.5821    3.7014  -23.9618 N   0  0  0  0  0  0  0  0  0  0  0  0
   -9.3218    2.8892  -23.9182 C   0  0  0  0  0  0  0  0  0  0  0  0
   -9.3931    1.4043  -23.7182 C   0  0  0  0  0  0  0  0  0  0  0  0
   -9.3075   -0.0809  -23.5261 C   0  0  0  0  0  0  0  0  0  0  0  0
  -10.0332   -1.0416  -23.3623 O   0  0  0  0  0  0  0  0  0  0  0  0
   -7.8586   -0.4685  -23.5482 N   0  0  0  0  0  0  0  0  0  0  0  0
   -7.0487    0.7772  -23.7539 C   0  0  0  0  0  0  0  0  0  0  0  0
   -7.9970    1.9346  -23.8590 C   0  0  0  0  0  0  0  0  0  0  0  0
  -10.7247    0.7316  -23.5618 C   0  0  0  0  0  0  0  0  0  0  0  0
  -10.7959   -0.7533  -23.3618 C   0  0  0  0  0  0  0  0  0  0  0  0
  -12.1275   -1.4259  -23.2055 C   0  0  0  0  0  0  0  0  0  0  0  0
  -12.1988   -2.9109  -23.0055 Cl  0  0  0  0  0  0  0  0  0  0  0  0
  -13.3878   -0.6137  -23.2491 C   0  0  0  0  0  0  0  0  0  0  0  0
  -13.3165    0.8712  -23.4490 C   0  0  0  0  0  0  0  0  0  0  0  0
  -11.9850    1.5438  -23.6054 C   0  0  0  0  0  0  0  0  0  0  0  0
  -11.9137    3.0288  -23.8054 C   0  0  0  0  0  0  0  0  0  0  0  0
  -13.1740    3.8410  -23.8490 O   0  0  0  0  0  0  0  0  0  0  0  0
   -7.3151   -1.8578  -23.3920 C   0  0  0  0  0  0  0  0  0  0  0  0
   -6.7404   -2.2949  -22.0772 C   0  0  0  0  0  0  0  0  0  0  0  0
   -6.1969   -3.6842  -21.9210 N   0  0  0  0  0  0  0  0  0  0  0  0
   -6.2281   -4.6364  -23.0796 C   0  0  0  0  0  0  0  0  0  0  0  0
   -6.8028   -4.1993  -24.3944 C   0  0  0  0  0  0  0  0  0  0  0  0
   -6.8340   -5.1516  -25.5530 C   0  0  0  0  0  0  0  0  0  0  0  0
   -7.4088   -4.7144  -26.8677 C   0  0  0  0  0  0  0  0  0  0  0  0
   -7.9523   -3.3251  -27.0239 C   0  0  0  0  0  0  0  0  0  0  0  0
   -7.9211   -2.3729  -25.8654 C   0  0  0  0  0  0  0  0  0  0  0  0
   -7.3463   -2.8100  -24.5506 C   0  0  0  0  0  0  0  0  0  0  0  0
  -10.5108    5.1864  -24.1618 C   0  0  0  0  0  0  0  0  0  0  0  0
  -10.6190    6.0652  -28.0303 C   0  0  0  0  0  0  0  0  0  0  0  0
  -10.1906    5.4628  -26.7251 N   0  0  0  0  0  0  0  0  0  0  0  0
  -10.9393    5.7888  -25.4670 C   0  0  0  0  0  0  0  0  0  0  0  0
  -12.1166    6.7172  -25.5139 O   0  0  0  0  0  0  0  0  0  0  0  0
   -9.4179    4.8534  -26.6943 H   0  0  0  0  0  0  0  0  0  0  0  0
   -7.6162    3.3703  -24.0681 C   0  0  0  0  0  0  0  0  0  0  0  0
   -6.5128    3.9797  -23.2551 O   0  0  0  0  0  0  0  0  0  0  0  0
   -6.8367    4.9568  -22.1641 C   0  0  0  0  0  0  0  0  0  0  0  0
 29 30  1  0  0  0
 30 31  1  0  0  0
 31 32  2  0  0  0
 31 28  1  0  0  0
 28  1  1  0  0  0
  1  2  1  0  0  0
  3  2  1  0  0  0
  3  4  1  0  0  0
  4  5  2  0  0  0
  4  6  1  0  0  0
  6 18  1  0  0  0
 18 19  2  0  0  0
 19 20  1  0  0  0
 20 21  2  0  0  0
 21 22  1  0  0  0
 22 23  2  0  0  0
 23 24  1  0  0  0
 24 25  2  0  0  0
 25 26  1  0  0  0
 26 27  2  0  0  0
  6  7  1  0  0  0
  7  8  1  0  0  0
  8 34  1  0  0  0
 34 35  1  0  0  0
 35 36  1  0  0  0
  3  9  1  0  0  0
  9 10  2  0  0  0
 10 11  1  0  0  0
 11 12  1  0  0  0
 11 13  2  0  0  0
 13 14  1  0  0  0
 14 15  2  0  0  0
 15 16  1  0  0  0
 16 17  2  0  0  0
 16  1  1  0  0  0
  8  3  1  0  0  0
 15  9  1  0  0  0
 27 18  1  0  0  0
 27 22  1  0  0  0
 30 33  1  0  0  0
M  END
> <minimizedAffinity>
-6.84493

> <CNNscore>
0.3687294424

> <CNNaffinity>
6.2595891953

> <CNN_VS>
2.3080947399

> <CNNaffinity_variance>
0.4040513635

$$$$



 36 40  0  0  0  0  0  0  0  0999 V2000
  -11.5811    3.9295  -24.0013 N   0  0  0  0  0  0  0  0  0  0  0  0
  -10.1950    3.3672  -23.8898 C   0  0  0  0  0  0  0  0  0  0  0  0
   -9.9981    1.9010  -23.6420 C   0  0  0  0  0  0  0  0  0  0  0  0
   -9.6469    0.4634  -23.3971 C   0  0  0  0  0  0  0  0  0  0  0  0
  -10.1881   -0.6106  -23.2242 O   0  0  0  0  0  0  0  0  0  0  0  0
   -8.1515    0.3515  -23.3595 N   0  0  0  0  0  0  0  0  0  0  0  0
   -7.5785    1.7199  -23.5812 C   0  0  0  0  0  0  0  0  0  0  0  0
   -8.7198    2.6776  -23.7558 C   0  0  0  0  0  0  0  0  0  0  0  0
  -11.1874    0.9970  -23.5058 C   0  0  0  0  0  0  0  0  0  0  0  0
  -10.9905   -0.4692  -23.2580 C   0  0  0  0  0  0  0  0  0  0  0  0
  -12.1798   -1.3731  -23.1218 C   0  0  0  0  0  0  0  0  0  0  0  0
  -11.9829   -2.8394  -22.8740 Cl  0  0  0  0  0  0  0  0  0  0  0  0
  -13.5659   -0.8108  -23.2334 C   0  0  0  0  0  0  0  0  0  0  0  0
  -13.7628    0.6554  -23.4811 C   0  0  0  0  0  0  0  0  0  0  0  0
  -12.5735    1.5593  -23.6173 C   0  0  0  0  0  0  0  0  0  0  0  0
  -12.7704    3.0256  -23.8651 C   0  0  0  0  0  0  0  0  0  0  0  0
  -14.1565    3.5879  -23.9767 O   0  0  0  0  0  0  0  0  0  0  0  0
   -7.3669   -0.9078  -23.1389 C   0  0  0  0  0  0  0  0  0  0  0  0
   -7.1168   -1.8456  -24.2826 C   0  0  0  0  0  0  0  0  0  0  0  0
   -6.3322   -3.1049  -24.0620 N   0  0  0  0  0  0  0  0  0  0  0  0
   -5.7977   -3.4263  -22.6978 C   0  0  0  0  0  0  0  0  0  0  0  0
   -6.0478   -2.4884  -21.5542 C   0  0  0  0  0  0  0  0  0  0  0  0
   -5.5133   -2.8098  -20.1900 C   0  0  0  0  0  0  0  0  0  0  0  0
   -5.7635   -1.8719  -19.0464 C   0  0  0  0  0  0  0  0  0  0  0  0
   -6.5481   -0.6127  -19.2670 C   0  0  0  0  0  0  0  0  0  0  0  0
   -7.0826   -0.2913  -20.6311 C   0  0  0  0  0  0  0  0  0  0  0  0
   -6.8324   -1.2291  -21.7748 C   0  0  0  0  0  0  0  0  0  0  0  0
  -11.7780    5.3958  -24.2491 C   0  0  0  0  0  0  0  0  0  0  0  0
  -13.9350    6.4025  -27.4246 C   0  0  0  0  0  0  0  0  0  0  0  0
  -13.5747    5.9155  -26.0524 N   0  0  0  0  0  0  0  0  0  0  0  0
  -12.1383    5.8828  -25.6213 C   0  0  0  0  0  0  0  0  0  0  0  0
  -11.0623    6.3371  -26.5625 O   0  0  0  0  0  0  0  0  0  0  0  0
  -14.2809    5.6174  -25.4346 H   0  0  0  0  0  0  0  0  0  0  0  0
   -8.6032    4.1528  -24.0011 C   0  0  0  0  0  0  0  0  0  0  0  0
   -7.3572    4.8840  -23.5979 O   0  0  0  0  0  0  0  0  0  0  0  0
   -7.0755    5.1427  -22.1475 C   0  0  0  0  0  0  0  0  0  0  0  0
 29 30  1  0  0  0
 30 31  1  0  0  0
 31 32  2  0  0  0
 31 28  1  0  0  0
 28  1  1  0  0  0
  1  2  1  0  0  0
  3  2  1  0  0  0
  3  4  1  0  0  0
  4  5  2  0  0  0
  4  6  1  0  0  0
  6 18  1  0  0  0
 18 19  2  0  0  0
 19 20  1  0  0  0
 20 21  2  0  0  0
 21 22  1  0  0  0
 22 23  2  0  0  0
 23 24  1  0  0  0
 24 25  2  0  0  0
 25 26  1  0  0  0
 26 27  2  0  0  0
  6  7  1  0  0  0
  7  8  1  0  0  0
  8 34  1  0  0  0
 34 35  1  0  0  0
 35 36  1  0  0  0
  3  9  1  0  0  0
  9 10  2  0  0  0
 10 11  1  0  0  0
 11 12  1  0  0  0
 11 13  2  0  0  0
 13 14  1  0  0  0
 14 15  2  0  0  0
 15 16  1  0  0  0
 16 17  2  0  0  0
 16  1  1  0  0  0
  8  3  1  0  0  0
 15  9  1  0  0  0
 27 18  1  0  0  0
 27 22  1  0  0  0
 30 33  1  0  0  0
M  END
> <minimizedAffinity>
-7.83146

> <CNNscore>
0.3609482348

> <CNNaffinity>
6.3404474258

> <CNN_VS>
2.2885732651

> <CNNaffinity_variance>
0.0603077486

$$$$



 36 40  0  0  0  0  0  0  0  0999 V2000
   -8.2975   -2.9523  -22.8609 N   0  0  0  0  0  0  0  0  0  0  0  0
   -9.5618   -2.1907  -23.1279 C   0  0  0  0  0  0  0  0  0  0  0  0
   -9.5697   -0.6937  -23.0339 C   0  0  0  0  0  0  0  0  0  0  0  0
   -9.7297    0.7967  -22.9782 C   0  0  0  0  0  0  0  0  0  0  0  0
   -9.0758    1.7952  -22.7508 O   0  0  0  0  0  0  0  0  0  0  0  0
  -11.1549    1.1228  -23.3134 N   0  0  0  0  0  0  0  0  0  0  0  0
  -11.8758   -0.1661  -23.5762 C   0  0  0  0  0  0  0  0  0  0  0  0
  -10.8961   -1.2887  -23.4034 C   0  0  0  0  0  0  0  0  0  0  0  0
   -8.3132    0.0418  -22.6727 C   0  0  0  0  0  0  0  0  0  0  0  0
   -8.3211    1.5388  -22.5787 C   0  0  0  0  0  0  0  0  0  0  0  0
   -7.0646    2.2741  -22.2176 C   0  0  0  0  0  0  0  0  0  0  0  0
   -7.0724    3.7712  -22.1235 Cl  0  0  0  0  0  0  0  0  0  0  0  0
   -5.8002    1.5125  -21.9505 C   0  0  0  0  0  0  0  0  0  0  0  0
   -5.7923    0.0155  -22.0446 C   0  0  0  0  0  0  0  0  0  0  0  0
   -7.0488   -0.7198  -22.4057 C   0  0  0  0  0  0  0  0  0  0  0  0
   -7.0410   -2.2169  -22.4998 C   0  0  0  0  0  0  0  0  0  0  0  0
   -5.7766   -2.9785  -22.2327 O   0  0  0  0  0  0  0  0  0  0  0  0
  -11.7541    2.4966  -23.3750 C   0  0  0  0  0  0  0  0  0  0  0  0
  -12.7961    2.9058  -22.3766 C   0  0  0  0  0  0  0  0  0  0  0  0
  -13.3952    4.2796  -22.4382 N   0  0  0  0  0  0  0  0  0  0  0  0
  -12.9523    5.2441  -23.4981 C   0  0  0  0  0  0  0  0  0  0  0  0
  -11.9103    4.8348  -24.4965 C   0  0  0  0  0  0  0  0  0  0  0  0
  -11.4674    5.7995  -25.5565 C   0  0  0  0  0  0  0  0  0  0  0  0
  -10.4254    5.3901  -26.5548 C   0  0  0  0  0  0  0  0  0  0  0  0
   -9.8263    4.0164  -26.4933 C   0  0  0  0  0  0  0  0  0  0  0  0
  -10.2692    3.0518  -25.4333 C   0  0  0  0  0  0  0  0  0  0  0  0
  -11.3112    3.4611  -24.4350 C   0  0  0  0  0  0  0  0  0  0  0  0
   -8.2896   -4.4494  -22.9550 C   0  0  0  0  0  0  0  0  0  0  0  0
   -6.6604   -6.6003  -25.8651 C   0  0  0  0  0  0  0  0  0  0  0  0
   -6.8588   -5.9334  -24.5363 N   0  0  0  0  0  0  0  0  0  0  0  0
   -8.0911   -5.1163  -24.2838 C   0  0  0  0  0  0  0  0  0  0  0  0
   -9.1251   -4.9661  -25.3602 O   0  0  0  0  0  0  0  0  0  0  0  0
   -6.1803   -6.0319  -23.8298 H   0  0  0  0  0  0  0  0  0  0  0  0
  -11.1910   -2.7499  -23.5709 C   0  0  0  0  0  0  0  0  0  0  0  0
  -12.4478   -3.3321  -22.9953 O   0  0  0  0  0  0  0  0  0  0  0  0
  -13.2635   -2.5382  -22.0184 C   0  0  0  0  0  0  0  0  0  0  0  0
 29 30  1  0  0  0
 30 31  1  0  0  0
 31 32  2  0  0  0
 31 28  1  0  0  0
 28  1  1  0  0  0
  1  2  1  0  0  0
  3  2  1  0  0  0
  3  4  1  0  0  0
  4  5  2  0  0  0
  4  6  1  0  0  0
  6 18  1  0  0  0
 18 19  2  0  0  0
 19 20  1  0  0  0
 20 21  2  0  0  0
 21 22  1  0  0  0
 22 23  2  0  0  0
 23 24  1  0  0  0
 24 25  2  0  0  0
 25 26  1  0  0  0
 26 27  2  0  0  0
  6  7  1  0  0  0
  7  8  1  0  0  0
  8 34  1  0  0  0
 34 35  1  0  0  0
 35 36  1  0  0  0
  3  9  1  0  0  0
  9 10  2  0  0  0
 10 11  1  0  0  0
 11 12  1  0  0  0
 11 13  2  0  0  0
 13 14  1  0  0  0
 14 15  2  0  0  0
 15 16  1  0  0  0
 16 17  2  0  0  0
 16  1  1  0  0  0
  8  3  1  0  0  0
 15  9  1  0  0  0
 27 18  1  0  0  0
 27 22  1  0  0  0
 30 33  1  0  0  0
M  END
> <minimizedAffinity>
-7.60601

> <CNNscore>
0.3254657388

> <CNNaffinity>
6.3333344460

> <CNN_VS>
2.0612833500

> <CNNaffinity_variance>
0.0677502528

$$$$



 36 40  0  0  0  0  0  0  0  0999 V2000
  -12.1568    2.2542  -23.8785 N   0  0  0  0  0  0  0  0  0  0  0  0
  -12.0552    0.7635  -23.7461 C   0  0  0  0  0  0  0  0  0  0  0  0
  -10.7111    0.0981  -23.7729 C   0  0  0  0  0  0  0  0  0  0  0  0
   -9.4433   -0.7034  -23.7820 C   0  0  0  0  0  0  0  0  0  0  0  0
   -8.2423   -0.5446  -23.8762 O   0  0  0  0  0  0  0  0  0  0  0  0
   -9.8080   -2.1497  -23.6229 N   0  0  0  0  0  0  0  0  0  0  0  0
  -11.3013   -2.2420  -23.5156 C   0  0  0  0  0  0  0  0  0  0  0  0
  -11.8594   -0.8528  -23.6083 C   0  0  0  0  0  0  0  0  0  0  0  0
   -9.4687    0.9234  -23.9320 C   0  0  0  0  0  0  0  0  0  0  0  0
   -8.1246    0.2580  -23.9588 C   0  0  0  0  0  0  0  0  0  0  0  0
   -6.8823    1.0833  -24.1179 C   0  0  0  0  0  0  0  0  0  0  0  0
   -5.5381    0.4179  -24.1447 Cl  0  0  0  0  0  0  0  0  0  0  0  0
   -6.9839    2.5740  -24.2503 C   0  0  0  0  0  0  0  0  0  0  0  0
   -8.3280    3.2394  -24.2235 C   0  0  0  0  0  0  0  0  0  0  0  0
   -9.5703    2.4141  -24.0644 C   0  0  0  0  0  0  0  0  0  0  0  0
  -10.9145    3.0795  -24.0376 C   0  0  0  0  0  0  0  0  0  0  0  0
  -11.0161    4.5702  -24.1699 O   0  0  0  0  0  0  0  0  0  0  0  0
   -8.8480   -3.3014  -23.5790 C   0  0  0  0  0  0  0  0  0  0  0  0
   -7.7025   -3.2864  -22.6107 C   0  0  0  0  0  0  0  0  0  0  0  0
   -6.7425   -4.4381  -22.5667 N   0  0  0  0  0  0  0  0  0  0  0  0
   -6.9280   -5.6048  -23.4910 C   0  0  0  0  0  0  0  0  0  0  0  0
   -8.0735   -5.6198  -24.4593 C   0  0  0  0  0  0  0  0  0  0  0  0
   -8.2590   -6.7866  -25.3837 C   0  0  0  0  0  0  0  0  0  0  0  0
   -9.4045   -6.8014  -26.3519 C   0  0  0  0  0  0  0  0  0  0  0  0
  -10.3645   -5.6498  -26.3959 C   0  0  0  0  0  0  0  0  0  0  0  0
  -10.1790   -4.4831  -25.4716 C   0  0  0  0  0  0  0  0  0  0  0  0
   -9.0335   -4.4681  -24.5033 C   0  0  0  0  0  0  0  0  0  0  0  0
  -13.5010    2.9196  -23.8517 C   0  0  0  0  0  0  0  0  0  0  0  0
  -13.7562    6.7320  -24.9242 C   0  0  0  0  0  0  0  0  0  0  0  0
  -13.6608    5.2377  -25.0139 N   0  0  0  0  0  0  0  0  0  0  0  0
  -13.5965    4.4138  -23.7621 C   0  0  0  0  0  0  0  0  0  0  0  0
  -13.6276    5.0843  -22.4205 O   0  0  0  0  0  0  0  0  0  0  0  0
  -13.6403    4.7977  -25.8943 H   0  0  0  0  0  0  0  0  0  0  0  0
  -13.3111   -0.4800  -23.5471 C   0  0  0  0  0  0  0  0  0  0  0  0
  -14.2862   -1.3747  -22.8411 O   0  0  0  0  0  0  0  0  0  0  0  0
  -13.7867   -2.4899  -21.9710 C   0  0  0  0  0  0  0  0  0  0  0  0
 29 30  1  0  0  0
 30 31  1  0  0  0
 31 32  2  0  0  0
 31 28  1  0  0  0
 28  1  1  0  0  0
  1  2  1  0  0  0
  3  2  1  0  0  0
  3  4  1  0  0  0
  4  5  2  0  0  0
  4  6  1  0  0  0
  6 18  1  0  0  0
 18 19  2  0  0  0
 19 20  1  0  0  0
 20 21  2  0  0  0
 21 22  1  0  0  0
 22 23  2  0  0  0
 23 24  1  0  0  0
 24 25  2  0  0  0
 25 26  1  0  0  0
 26 27  2  0  0  0
  6  7  1  0  0  0
  7  8  1  0  0  0
  8 34  1  0  0  0
 34 35  1  0  0  0
 35 36  1  0  0  0
  3  9  1  0  0  0
  9 10  2  0  0  0
 10 11  1  0  0  0
 11 12  1  0  0  0
 11 13  2  0  0  0
 13 14  1  0  0  0
 14 15  2  0  0  0
 15 16  1  0  0  0
 16 17  2  0  0  0
 16  1  1  0  0  0
  8  3  1  0  0  0
 15  9  1  0  0  0
 27 18  1  0  0  0
 27 22  1  0  0  0
 30 33  1  0  0  0
M  END
> <minimizedAffinity>
-8.54081

> <CNNscore>
0.3088020086

> <CNNaffinity>
6.4552445412

> <CNN_VS>
1.9933924675

> <CNNaffinity_variance>
0.1016012579

$$$$



 36 40  0  0  0  0  0  0  0  0999 V2000
   -6.7029   -0.2357  -22.4108 N   0  0  0  0  0  0  0  0  0  0  0  0
   -7.1001    1.1451  -22.8415 C   0  0  0  0  0  0  0  0  0  0  0  0
   -8.5208    1.4304  -23.2289 C   0  0  0  0  0  0  0  0  0  0  0  0
   -9.8960    1.8635  -23.6428 C   0  0  0  0  0  0  0  0  0  0  0  0
  -11.0139    1.4074  -23.7790 O   0  0  0  0  0  0  0  0  0  0  0  0
   -9.8377    3.3214  -23.9909 N   0  0  0  0  0  0  0  0  0  0  0  0
   -8.4264    3.7893  -23.7922 C   0  0  0  0  0  0  0  0  0  0  0  0
   -7.6126    2.6206  -23.3212 C   0  0  0  0  0  0  0  0  0  0  0  0
   -9.5444    0.3347  -23.1857 C   0  0  0  0  0  0  0  0  0  0  0  0
  -10.9652    0.6199  -23.5731 C   0  0  0  0  0  0  0  0  0  0  0  0
  -11.9887   -0.4757  -23.5299 C   0  0  0  0  0  0  0  0  0  0  0  0
  -13.4095   -0.1906  -23.9173 Cl  0  0  0  0  0  0  0  0  0  0  0  0
  -11.5915   -1.8566  -23.0992 C   0  0  0  0  0  0  0  0  0  0  0  0
  -10.1707   -2.1418  -22.7118 C   0  0  0  0  0  0  0  0  0  0  0  0
   -9.1472   -1.0462  -22.7550 C   0  0  0  0  0  0  0  0  0  0  0  0
   -7.7264   -1.3314  -22.3676 C   0  0  0  0  0  0  0  0  0  0  0  0
   -7.3292   -2.7122  -21.9370 O   0  0  0  0  0  0  0  0  0  0  0  0
  -10.9885    4.1634  -24.4561 C   0  0  0  0  0  0  0  0  0  0  0  0
  -11.9500    4.7369  -23.4578 C   0  0  0  0  0  0  0  0  0  0  0  0
  -13.1009    5.5790  -23.9230 N   0  0  0  0  0  0  0  0  0  0  0  0
  -13.2903    5.8476  -25.3865 C   0  0  0  0  0  0  0  0  0  0  0  0
  -12.3288    5.2741  -26.3848 C   0  0  0  0  0  0  0  0  0  0  0  0
  -12.5182    5.5428  -27.8485 C   0  0  0  0  0  0  0  0  0  0  0  0
  -11.5566    4.9692  -28.8467 C   0  0  0  0  0  0  0  0  0  0  0  0
  -10.4058    4.1272  -28.3815 C   0  0  0  0  0  0  0  0  0  0  0  0
  -10.2164    3.8586  -26.9180 C   0  0  0  0  0  0  0  0  0  0  0  0
  -11.1779    4.4320  -25.9196 C   0  0  0  0  0  0  0  0  0  0  0  0
   -5.2821   -0.5209  -22.0234 C   0  0  0  0  0  0  0  0  0  0  0  0
   -5.0965    0.0626  -18.1023 C   0  0  0  0  0  0  0  0  0  0  0  0
   -5.6043   -0.3542  -19.4508 N   0  0  0  0  0  0  0  0  0  0  0  0
   -4.7743   -0.1041  -20.6749 C   0  0  0  0  0  0  0  0  0  0  0  0
   -3.4365    0.5630  -20.5506 O   0  0  0  0  0  0  0  0  0  0  0  0
   -6.4823   -0.7920  -19.5324 H   0  0  0  0  0  0  0  0  0  0  0  0
   -6.1477    2.6389  -22.9992 C   0  0  0  0  0  0  0  0  0  0  0  0
   -5.5023    3.9027  -22.5133 O   0  0  0  0  0  0  0  0  0  0  0  0
   -6.3507    5.0321  -22.0086 C   0  0  0  0  0  0  0  0  0  0  0  0
 29 30  1  0  0  0
 30 31  1  0  0  0
 31 32  2  0  0  0
 31 28  1  0  0  0
 28  1  1  0  0  0
  1  2  1  0  0  0
  3  2  1  0  0  0
  3  4  1  0  0  0
  4  5  2  0  0  0
  4  6  1  0  0  0
  6 18  1  0  0  0
 18 19  2  0  0  0
 19 20  1  0  0  0
 20 21  2  0  0  0
 21 22  1  0  0  0
 22 23  2  0  0  0
 23 24  1  0  0  0
 24 25  2  0  0  0
 25 26  1  0  0  0
 26 27  2  0  0  0
  6  7  1  0  0  0
  7  8  1  0  0  0
  8 34  1  0  0  0
 34 35  1  0  0  0
 35 36  1  0  0  0
  3  9  1  0  0  0
  9 10  2  0  0  0
 10 11  1  0  0  0
 11 12  1  0  0  0
 11 13  2  0  0  0
 13 14  1  0  0  0
 14 15  2  0  0  0
 15 16  1  0  0  0
 16 17  2  0  0  0
 16  1  1  0  0  0
  8  3  1  0  0  0
 15  9  1  0  0  0
 27 18  1  0  0  0
 27 22  1  0  0  0
 30 33  1  0  0  0
M  END
> <minimizedAffinity>
-7.68607

> <CNNscore>
0.2563020289

> <CNNaffinity>
6.0549511909

> <CNN_VS>
1.5518963337

> <CNNaffinity_variance>
0.1347258389

$$$$



 36 40  0  0  0  0  0  0  0  0999 V2000
   -6.3320   -0.0542  -22.4123 N   0  0  0  0  0  0  0  0  0  0  0  0
   -6.6587    1.2047  -23.1595 C   0  0  0  0  0  0  0  0  0  0  0  0
   -8.0511    1.4357  -23.6672 C   0  0  0  0  0  0  0  0  0  0  0  0
   -9.3913    1.8034  -24.2317 C   0  0  0  0  0  0  0  0  0  0  0  0
  -10.5197    1.3604  -24.3145 O   0  0  0  0  0  0  0  0  0  0  0  0
   -9.2635    3.1429  -24.8945 N   0  0  0  0  0  0  0  0  0  0  0  0
   -7.8443    3.6031  -24.7397 C   0  0  0  0  0  0  0  0  0  0  0  0
   -7.0950    2.5480  -23.9812 C   0  0  0  0  0  0  0  0  0  0  0  0
   -9.1169    0.4076  -23.4276 C   0  0  0  0  0  0  0  0  0  0  0  0
  -10.5093    0.6386  -23.9353 C   0  0  0  0  0  0  0  0  0  0  0  0
  -11.5751   -0.3894  -23.6957 C   0  0  0  0  0  0  0  0  0  0  0  0
  -12.9676   -0.1585  -24.2034 Cl  0  0  0  0  0  0  0  0  0  0  0  0
  -11.2483   -1.6483  -22.9485 C   0  0  0  0  0  0  0  0  0  0  0  0
   -9.8559   -1.8793  -22.4408 C   0  0  0  0  0  0  0  0  0  0  0  0
   -8.7902   -0.8513  -22.6804 C   0  0  0  0  0  0  0  0  0  0  0  0
   -7.3977   -1.0822  -22.1727 C   0  0  0  0  0  0  0  0  0  0  0  0
   -7.0710   -2.3411  -21.4255 O   0  0  0  0  0  0  0  0  0  0  0  0
  -10.3621    3.8908  -25.5900 C   0  0  0  0  0  0  0  0  0  0  0  0
  -10.3294    4.0571  -27.0804 C   0  0  0  0  0  0  0  0  0  0  0  0
  -11.4279    4.8050  -27.7760 N   0  0  0  0  0  0  0  0  0  0  0  0
  -12.5591    5.3868  -26.9810 C   0  0  0  0  0  0  0  0  0  0  0  0
  -12.5918    5.2205  -25.4906 C   0  0  0  0  0  0  0  0  0  0  0  0
  -13.7231    5.8023  -24.6957 C   0  0  0  0  0  0  0  0  0  0  0  0
  -13.7557    5.6360  -23.2053 C   0  0  0  0  0  0  0  0  0  0  0  0
  -12.6571    4.8881  -22.5098 C   0  0  0  0  0  0  0  0  0  0  0  0
  -11.5259    4.3064  -23.3047 C   0  0  0  0  0  0  0  0  0  0  0  0
  -11.4933    4.4726  -24.7951 C   0  0  0  0  0  0  0  0  0  0  0  0
   -4.9395   -0.2851  -21.9046 C   0  0  0  0  0  0  0  0  0  0  0  0
   -5.1876    0.0625  -17.9590 C   0  0  0  0  0  0  0  0  0  0  0  0
   -5.5365   -0.2844  -19.3761 N   0  0  0  0  0  0  0  0  0  0  0  0
   -4.5907    0.0619  -20.4876 C   0  0  0  0  0  0  0  0  0  0  0  0
   -3.2960    0.7552  -20.1821 O   0  0  0  0  0  0  0  0  0  0  0  0
   -6.3862   -0.7394  -19.5766 H   0  0  0  0  0  0  0  0  0  0  0  0
   -5.6442    2.5966  -23.6031 C   0  0  0  0  0  0  0  0  0  0  0  0
   -5.1558    3.6332  -22.6353 O   0  0  0  0  0  0  0  0  0  0  0  0
   -3.6931    3.7330  -22.3180 C   0  0  0  0  0  0  0  0  0  0  0  0
 29 30  1  0  0  0
 30 31  1  0  0  0
 31 32  2  0  0  0
 31 28  1  0  0  0
 28  1  1  0  0  0
  1  2  1  0  0  0
  3  2  1  0  0  0
  3  4  1  0  0  0
  4  5  2  0  0  0
  4  6  1  0  0  0
  6 18  1  0  0  0
 18 19  2  0  0  0
 19 20  1  0  0  0
 20 21  2  0  0  0
 21 22  1  0  0  0
 22 23  2  0  0  0
 23 24  1  0  0  0
 24 25  2  0  0  0
 25 26  1  0  0  0
 26 27  2  0  0  0
  6  7  1  0  0  0
  7  8  1  0  0  0
  8 34  1  0  0  0
 34 35  1  0  0  0
 35 36  1  0  0  0
  3  9  1  0  0  0
  9 10  2  0  0  0
 10 11  1  0  0  0
 11 12  1  0  0  0
 11 13  2  0  0  0
 13 14  1  0  0  0
 14 15  2  0  0  0
 15 16  1  0  0  0
 16 17  2  0  0  0
 16  1  1  0  0  0
  8  3  1  0  0  0
 15  9  1  0  0  0
 27 18  1  0  0  0
 27 22  1  0  0  0
 30 33  1  0  0  0
M  END
> <minimizedAffinity>
-7.65375

> <CNNscore>
0.2259601206

> <CNNaffinity>
5.8796505928

> <CNN_VS>
1.3285665512

> <CNNaffinity_variance>
0.1653545648

$$$$
