


 21 23  0  0  0  0  0  0  0  0999 V2000
    6.8949   -0.1872   21.4606 C   0  0  0  0  0  0  0  0  0  0  0  0
   13.2493   -1.5329   25.0012 C   0  0  0  0  0  0  0  0  0  0  0  0
   11.9283   -1.3644   24.3109 C   0  0  0  0  0  0  0  0  0  0  0  0
   11.7007   -0.0338   23.6569 C   0  0  0  0  0  0  0  0  0  0  0  0
   10.4981    0.4410   22.8963 C   0  0  0  0  0  0  0  0  0  0  0  0
    9.2262   -0.2975   22.6020 N   0  0  0  0  0  0  0  0  0  0  0  0
    8.2024    0.4598   21.8093 C   0  0  0  0  0  0  0  0  0  0  0  0
    8.4862    1.8643   21.3653 O   0  0  0  0  0  0  0  0  0  0  0  0
    8.8426   -1.6932   22.9954 C   0  0  0  0  0  0  0  0  0  0  0  0
    9.6363   -2.6952   23.7804 C   0  0  0  0  0  0  0  0  0  0  0  0
   11.0095   -2.5489   24.3659 O   0  0  0  0  0  0  0  0  0  0  0  0
    6.1496    0.2423   20.2317 C   0  0  0  0  0  0  0  0  0  0  0  0
    6.6972   -0.0774   18.8724 C   0  0  0  0  0  0  0  0  0  0  0  0
    5.9519    0.3522   17.6435 N   0  0  0  0  0  0  0  0  0  0  0  0
    4.6591    1.1015   17.7740 C   0  0  0  0  0  0  0  0  0  0  0  0
    4.1115    1.4213   19.1335 C   0  0  0  0  0  0  0  0  0  0  0  0
    2.8187    2.1707   19.2640 C   0  0  0  0  0  0  0  0  0  0  0  0
    2.2711    2.4904   20.6233 C   0  0  0  0  0  0  0  0  0  0  0  0
    3.0164    2.0608   21.8522 C   0  0  0  0  0  0  0  0  0  0  0  0
    4.3092    1.3115   21.7217 C   0  0  0  0  0  0  0  0  0  0  0  0
    4.8567    0.9917   20.3623 C   0  0  0  0  0  0  0  0  0  0  0  0
  3  2  1  0  0  0
  3  4  1  0  0  0
  4  5  1  0  0  0
  5  6  1  0  0  0
  6  7  1  0  0  0
  7  8  2  0  0  0
  7  1  1  0  0  0
  1 12  1  0  0  0
 12 13  2  0  0  0
 13 14  1  0  0  0
 14 15  2  0  0  0
 15 16  1  0  0  0
 16 17  2  0  0  0
 17 18  1  0  0  0
 18 19  2  0  0  0
 19 20  1  0  0  0
 20 21  2  0  0  0
  6  9  1  0  0  0
  9 10  1  0  0  0
 10 11  1  0  0  0
 11  3  1  0  0  0
 21 12  1  0  0  0
 21 16  1  0  0  0
M  END
> <minimizedAffinity>
-7.36836

> <CNNscore>
0.6814374924

> <CNNaffinity>
5.1633272171

> <CNN_VS>
3.5184848309

> <CNNaffinity_variance>
0.0567736030

$$$$



 21 23  0  0  0  0  0  0  0  0999 V2000
    8.4992   -3.5746   24.2402 C   0  0  0  0  0  0  0  0  0  0  0  0
    1.9031   -6.9144   23.9900 C   0  0  0  0  0  0  0  0  0  0  0  0
    3.2585   -6.2744   23.9358 C   0  0  0  0  0  0  0  0  0  0  0  0
    3.6765   -5.5297   25.1690 C   0  0  0  0  0  0  0  0  0  0  0  0
    4.9560   -4.7904   25.4266 C   0  0  0  0  0  0  0  0  0  0  0  0
    6.1335   -4.6131   24.5144 N   0  0  0  0  0  0  0  0  0  0  0  0
    7.2728   -3.8116   25.0707 C   0  0  0  0  0  0  0  0  0  0  0  0
    7.1857   -3.2470   26.4578 O   0  0  0  0  0  0  0  0  0  0  0  0
    6.3224   -5.1313   23.1195 C   0  0  0  0  0  0  0  0  0  0  0  0
    5.3804   -5.9548   22.2922 C   0  0  0  0  0  0  0  0  0  0  0  0
    4.0168   -6.4636   22.6555 O   0  0  0  0  0  0  0  0  0  0  0  0
    9.8411   -3.4586   24.9002 C   0  0  0  0  0  0  0  0  0  0  0  0
   10.2133   -4.3937   26.0125 C   0  0  0  0  0  0  0  0  0  0  0  0
   11.5552   -4.2776   26.6725 N   0  0  0  0  0  0  0  0  0  0  0  0
   12.5251   -3.2265   26.2203 C   0  0  0  0  0  0  0  0  0  0  0  0
   12.1530   -2.2914   25.1080 C   0  0  0  0  0  0  0  0  0  0  0  0
   13.1229   -1.2403   24.6558 C   0  0  0  0  0  0  0  0  0  0  0  0
   12.7508   -0.3053   23.5435 C   0  0  0  0  0  0  0  0  0  0  0  0
   11.4088   -0.4213   22.8835 C   0  0  0  0  0  0  0  0  0  0  0  0
   10.4389   -1.4724   23.3357 C   0  0  0  0  0  0  0  0  0  0  0  0
   10.8110   -2.4075   24.4479 C   0  0  0  0  0  0  0  0  0  0  0  0
  3  2  1  0  0  0
  3  4  1  0  0  0
  4  5  1  0  0  0
  5  6  1  0  0  0
  6  7  1  0  0  0
  7  8  2  0  0  0
  7  1  1  0  0  0
  1 12  1  0  0  0
 12 13  2  0  0  0
 13 14  1  0  0  0
 14 15  2  0  0  0
 15 16  1  0  0  0
 16 17  2  0  0  0
 17 18  1  0  0  0
 18 19  2  0  0  0
 19 20  1  0  0  0
 20 21  2  0  0  0
  6  9  1  0  0  0
  9 10  1  0  0  0
 10 11  1  0  0  0
 11  3  1  0  0  0
 21 12  1  0  0  0
 21 16  1  0  0  0
M  END
> <minimizedAffinity>
-6.68177

> <CNNscore>
0.6474087834

> <CNNaffinity>
5.1496896744

> <CNN_VS>
3.3339543343

> <CNNaffinity_variance>
0.0472769290

$$$$



 21 23  0  0  0  0  0  0  0  0999 V2000
    8.4206   -3.8307   25.3296 C   0  0  0  0  0  0  0  0  0  0  0  0
    1.3204   -5.8859   25.6265 C   0  0  0  0  0  0  0  0  0  0  0  0
    2.7328   -5.3810   25.6311 C   0  0  0  0  0  0  0  0  0  0  0  0
    3.7202   -6.2025   24.8564 C   0  0  0  0  0  0  0  0  0  0  0  0
    5.1898   -5.9673   24.6690 C   0  0  0  0  0  0  0  0  0  0  0  0
    6.0349   -4.8524   25.2101 N   0  0  0  0  0  0  0  0  0  0  0  0
    7.4878   -4.8986   24.8402 C   0  0  0  0  0  0  0  0  0  0  0  0
    8.0079   -6.0127   23.9809 O   0  0  0  0  0  0  0  0  0  0  0  0
    5.6192   -3.6974   26.0721 C   0  0  0  0  0  0  0  0  0  0  0  0
    4.2557   -3.3720   26.6060 C   0  0  0  0  0  0  0  0  0  0  0  0
    2.9711   -4.1213   26.4097 O   0  0  0  0  0  0  0  0  0  0  0  0
    9.2506   -3.0538   24.3511 C   0  0  0  0  0  0  0  0  0  0  0  0
    8.6625   -2.6324   23.0372 C   0  0  0  0  0  0  0  0  0  0  0  0
    9.4924   -1.8554   22.0586 N   0  0  0  0  0  0  0  0  0  0  0  0
   10.9105   -1.4999   22.3940 C   0  0  0  0  0  0  0  0  0  0  0  0
   11.4987   -1.9213   23.7080 C   0  0  0  0  0  0  0  0  0  0  0  0
   12.9168   -1.5658   24.0434 C   0  0  0  0  0  0  0  0  0  0  0  0
   13.5050   -1.9872   25.3573 C   0  0  0  0  0  0  0  0  0  0  0  0
   12.6750   -2.7642   26.3359 C   0  0  0  0  0  0  0  0  0  0  0  0
   11.2569   -3.1197   26.0005 C   0  0  0  0  0  0  0  0  0  0  0  0
   10.6688   -2.6983   24.6865 C   0  0  0  0  0  0  0  0  0  0  0  0
  3  2  1  0  0  0
  3  4  1  0  0  0
  4  5  1  0  0  0
  5  6  1  0  0  0
  6  7  1  0  0  0
  7  8  2  0  0  0
  7  1  1  0  0  0
  1 12  1  0  0  0
 12 13  2  0  0  0
 13 14  1  0  0  0
 14 15  2  0  0  0
 15 16  1  0  0  0
 16 17  2  0  0  0
 17 18  1  0  0  0
 18 19  2  0  0  0
 19 20  1  0  0  0
 20 21  2  0  0  0
  6  9  1  0  0  0
  9 10  1  0  0  0
 10 11  1  0  0  0
 11  3  1  0  0  0
 21 12  1  0  0  0
 21 16  1  0  0  0
M  END
> <minimizedAffinity>
-6.41769

> <CNNscore>
0.6367463470

> <CNNaffinity>
5.2462730408

> <CNN_VS>
3.3405451775

> <CNNaffinity_variance>
0.0968579650

$$$$



 21 23  0  0  0  0  0  0  0  0999 V2000
    8.9542   -2.7930   23.3294 C   0  0  0  0  0  0  0  0  0  0  0  0
    4.8920   -0.9522   29.2315 C   0  0  0  0  0  0  0  0  0  0  0  0
    5.7122   -1.2170   28.0040 C   0  0  0  0  0  0  0  0  0  0  0  0
    6.1372   -2.6410   27.7998 C   0  0  0  0  0  0  0  0  0  0  0  0
    6.9540   -3.2226   26.6842 C   0  0  0  0  0  0  0  0  0  0  0  0
    7.5474   -2.5236   25.4970 N   0  0  0  0  0  0  0  0  0  0  0  0
    8.3197   -3.3926   24.5491 C   0  0  0  0  0  0  0  0  0  0  0  0
    8.4575   -4.8614   24.8211 O   0  0  0  0  0  0  0  0  0  0  0  0
    7.4707   -1.0707   25.1323 C   0  0  0  0  0  0  0  0  0  0  0  0
    6.7816    0.0422   25.8647 C   0  0  0  0  0  0  0  0  0  0  0  0
    5.9989   -0.0228   27.1427 O   0  0  0  0  0  0  0  0  0  0  0  0
   10.1723   -1.9283   23.4658 C   0  0  0  0  0  0  0  0  0  0  0  0
   10.3569   -0.7448   22.5630 C   0  0  0  0  0  0  0  0  0  0  0  0
   11.5750    0.1198   22.6994 N   0  0  0  0  0  0  0  0  0  0  0  0
   12.6085   -0.1990   23.7386 C   0  0  0  0  0  0  0  0  0  0  0  0
   12.4240   -1.3826   24.6416 C   0  0  0  0  0  0  0  0  0  0  0  0
   13.4575   -1.7015   25.6808 C   0  0  0  0  0  0  0  0  0  0  0  0
   13.2730   -2.8850   26.5837 C   0  0  0  0  0  0  0  0  0  0  0  0
   12.0548   -3.7496   26.4473 C   0  0  0  0  0  0  0  0  0  0  0  0
   11.0213   -3.4308   25.4080 C   0  0  0  0  0  0  0  0  0  0  0  0
   11.2059   -2.2473   24.5052 C   0  0  0  0  0  0  0  0  0  0  0  0
  3  2  1  0  0  0
  3  4  1  0  0  0
  4  5  1  0  0  0
  5  6  1  0  0  0
  6  7  1  0  0  0
  7  8  2  0  0  0
  7  1  1  0  0  0
  1 12  1  0  0  0
 12 13  2  0  0  0
 13 14  1  0  0  0
 14 15  2  0  0  0
 15 16  1  0  0  0
 16 17  2  0  0  0
 17 18  1  0  0  0
 18 19  2  0  0  0
 19 20  1  0  0  0
 20 21  2  0  0  0
  6  9  1  0  0  0
  9 10  1  0  0  0
 10 11  1  0  0  0
 11  3  1  0  0  0
 21 12  1  0  0  0
 21 16  1  0  0  0
M  END
> <minimizedAffinity>
-6.42081

> <CNNscore>
0.6285312772

> <CNNaffinity>
5.0573797226

> <CNN_VS>
3.1787214279

> <CNNaffinity_variance>
0.1364180744

$$$$



 21 23  0  0  0  0  0  0  0  0999 V2000
   11.2826   -0.4087   23.1391 C   0  0  0  0  0  0  0  0  0  0  0  0
   10.4003    6.9208   22.6657 C   0  0  0  0  0  0  0  0  0  0  0  0
   10.4691    5.4272   22.7848 C   0  0  0  0  0  0  0  0  0  0  0  0
   11.8219    4.8182   22.5633 C   0  0  0  0  0  0  0  0  0  0  0  0
   12.2157    3.3716   22.6119 C   0  0  0  0  0  0  0  0  0  0  0  0
   11.3539    2.1768   22.8941 N   0  0  0  0  0  0  0  0  0  0  0  0
   12.0529    0.8498   22.8698 C   0  0  0  0  0  0  0  0  0  0  0  0
   13.5224    0.7815   22.5764 O   0  0  0  0  0  0  0  0  0  0  0  0
    9.8855    2.1334   23.1973 C   0  0  0  0  0  0  0  0  0  0  0  0
    8.9162    3.2741   23.2932 C   0  0  0  0  0  0  0  0  0  0  0  0
    9.1759    4.7400   23.1096 O   0  0  0  0  0  0  0  0  0  0  0  0
   11.7425   -1.3556   24.2077 C   0  0  0  0  0  0  0  0  0  0  0  0
   13.2072   -1.6168   24.3985 C   0  0  0  0  0  0  0  0  0  0  0  0
   13.6672   -2.5636   25.4672 N   0  0  0  0  0  0  0  0  0  0  0  0
   12.6625   -3.2492   26.3449 C   0  0  0  0  0  0  0  0  0  0  0  0
   11.1977   -2.9881   26.1540 C   0  0  0  0  0  0  0  0  0  0  0  0
   10.1930   -3.6737   27.0317 C   0  0  0  0  0  0  0  0  0  0  0  0
    8.7284   -3.4125   26.8409 C   0  0  0  0  0  0  0  0  0  0  0  0
    8.2684   -2.4657   25.7722 C   0  0  0  0  0  0  0  0  0  0  0  0
    9.2731   -1.7800   24.8945 C   0  0  0  0  0  0  0  0  0  0  0  0
   10.7378   -2.0412   25.0854 C   0  0  0  0  0  0  0  0  0  0  0  0
  3  2  1  0  0  0
  3  4  1  0  0  0
  4  5  1  0  0  0
  5  6  1  0  0  0
  6  7  1  0  0  0
  7  8  2  0  0  0
  7  1  1  0  0  0
  1 12  1  0  0  0
 12 13  2  0  0  0
 13 14  1  0  0  0
 14 15  2  0  0  0
 15 16  1  0  0  0
 16 17  2  0  0  0
 17 18  1  0  0  0
 18 19  2  0  0  0
 19 20  1  0  0  0
 20 21  2  0  0  0
  6  9  1  0  0  0
  9 10  1  0  0  0
 10 11  1  0  0  0
 11  3  1  0  0  0
 21 12  1  0  0  0
 21 16  1  0  0  0
M  END
> <minimizedAffinity>
-7.33117

> <CNNscore>
0.5939702988

> <CNNaffinity>
5.1396903992

> <CNN_VS>
3.0528235435

> <CNNaffinity_variance>
0.3182714581

$$$$



 21 23  0  0  0  0  0  0  0  0999 V2000
    9.6597   -1.6027   22.1894 C   0  0  0  0  0  0  0  0  0  0  0  0
    6.3486    4.7991   23.8562 C   0  0  0  0  0  0  0  0  0  0  0  0
    7.1130    3.5603   23.4947 C   0  0  0  0  0  0  0  0  0  0  0  0
    6.3546    2.2711   23.6081 C   0  0  0  0  0  0  0  0  0  0  0  0
    6.8306    0.8777   23.3223 C   0  0  0  0  0  0  0  0  0  0  0  0
    8.1827    0.4292   22.8527 N   0  0  0  0  0  0  0  0  0  0  0  0
    8.3465   -1.0490   22.6571 C   0  0  0  0  0  0  0  0  0  0  0  0
    7.1969   -1.9734   22.9292 O   0  0  0  0  0  0  0  0  0  0  0  0
    9.3927    1.2633   22.5528 C   0  0  0  0  0  0  0  0  0  0  0  0
    9.5495    2.7521   22.6484 C   0  0  0  0  0  0  0  0  0  0  0  0
    8.5349    3.7743   23.0676 O   0  0  0  0  0  0  0  0  0  0  0  0
   10.8469   -1.5933   23.1063 C   0  0  0  0  0  0  0  0  0  0  0  0
   12.0144   -0.6986   22.8125 C   0  0  0  0  0  0  0  0  0  0  0  0
   13.2015   -0.6892   23.7294 N   0  0  0  0  0  0  0  0  0  0  0  0
   13.2211   -1.5745   24.9401 C   0  0  0  0  0  0  0  0  0  0  0  0
   12.0535   -2.4692   25.2339 C   0  0  0  0  0  0  0  0  0  0  0  0
   12.0731   -3.3545   26.4446 C   0  0  0  0  0  0  0  0  0  0  0  0
   10.9056   -4.2492   26.7385 C   0  0  0  0  0  0  0  0  0  0  0  0
    9.7184   -4.2586   25.8216 C   0  0  0  0  0  0  0  0  0  0  0  0
    9.6989   -3.3733   24.6109 C   0  0  0  0  0  0  0  0  0  0  0  0
   10.8664   -2.4786   24.3171 C   0  0  0  0  0  0  0  0  0  0  0  0
  3  2  1  0  0  0
  3  4  1  0  0  0
  4  5  1  0  0  0
  5  6  1  0  0  0
  6  7  1  0  0  0
  7  8  2  0  0  0
  7  1  1  0  0  0
  1 12  1  0  0  0
 12 13  2  0  0  0
 13 14  1  0  0  0
 14 15  2  0  0  0
 15 16  1  0  0  0
 16 17  2  0  0  0
 17 18  1  0  0  0
 18 19  2  0  0  0
 19 20  1  0  0  0
 20 21  2  0  0  0
  6  9  1  0  0  0
  9 10  1  0  0  0
 10 11  1  0  0  0
 11  3  1  0  0  0
 21 12  1  0  0  0
 21 16  1  0  0  0
M  END
> <minimizedAffinity>
-6.57403

> <CNNscore>
0.5748685002

> <CNNaffinity>
5.1870832443

> <CNN_VS>
2.9818906784

> <CNNaffinity_variance>
0.2548481822

$$$$



 21 23  0  0  0  0  0  0  0  0999 V2000
    9.2987   -1.8134   22.2603 C   0  0  0  0  0  0  0  0  0  0  0  0
    6.8288    5.1304   22.8998 C   0  0  0  0  0  0  0  0  0  0  0  0
    7.4318    3.7607   22.7986 C   0  0  0  0  0  0  0  0  0  0  0  0
    6.4885    2.6613   22.4094 C   0  0  0  0  0  0  0  0  0  0  0  0
    6.7786    1.2012   22.2254 C   0  0  0  0  0  0  0  0  0  0  0  0
    8.0841    0.4798   22.3854 N   0  0  0  0  0  0  0  0  0  0  0  0
    8.0470   -0.9975   22.1279 C   0  0  0  0  0  0  0  0  0  0  0  0
    6.7583   -1.6588   21.7381 O   0  0  0  0  0  0  0  0  0  0  0  0
    9.4215    1.0403   22.7687 C   0  0  0  0  0  0  0  0  0  0  0  0
    9.7840    2.4607   23.0868 C   0  0  0  0  0  0  0  0  0  0  0  0
    8.8985    3.6714   23.1001 O   0  0  0  0  0  0  0  0  0  0  0  0
    9.5521   -2.6004   23.5119 C   0  0  0  0  0  0  0  0  0  0  0  0
    8.5140   -3.5566   24.0197 C   0  0  0  0  0  0  0  0  0  0  0  0
    8.7674   -4.3435   25.2713 N   0  0  0  0  0  0  0  0  0  0  0  0
   10.0589   -4.1743   26.0151 C   0  0  0  0  0  0  0  0  0  0  0  0
   11.0971   -3.2180   25.5073 C   0  0  0  0  0  0  0  0  0  0  0  0
   12.3887   -3.0487   26.2511 C   0  0  0  0  0  0  0  0  0  0  0  0
   13.4268   -2.0925   25.7432 C   0  0  0  0  0  0  0  0  0  0  0  0
   13.1733   -1.3056   24.4916 C   0  0  0  0  0  0  0  0  0  0  0  0
   11.8818   -1.4748   23.7479 C   0  0  0  0  0  0  0  0  0  0  0  0
   10.8437   -2.4311   24.2557 C   0  0  0  0  0  0  0  0  0  0  0  0
  3  2  1  0  0  0
  3  4  1  0  0  0
  4  5  1  0  0  0
  5  6  1  0  0  0
  6  7  1  0  0  0
  7  8  2  0  0  0
  7  1  1  0  0  0
  1 12  1  0  0  0
 12 13  2  0  0  0
 13 14  1  0  0  0
 14 15  2  0  0  0
 15 16  1  0  0  0
 16 17  2  0  0  0
 17 18  1  0  0  0
 18 19  2  0  0  0
 19 20  1  0  0  0
 20 21  2  0  0  0
  6  9  1  0  0  0
  9 10  1  0  0  0
 10 11  1  0  0  0
 11  3  1  0  0  0
 21 12  1  0  0  0
 21 16  1  0  0  0
M  END
> <minimizedAffinity>
-6.72868

> <CNNscore>
0.5548073649

> <CNNaffinity>
5.0961365700

> <CNN_VS>
2.8273742199

> <CNNaffinity_variance>
0.0737658888

$$$$



 21 23  0  0  0  0  0  0  0  0999 V2000
    8.4729   -0.6306   24.9307 C   0  0  0  0  0  0  0  0  0  0  0  0
    5.1741   -6.4703   21.8096 C   0  0  0  0  0  0  0  0  0  0  0  0
    5.9039   -5.3588   22.5036 C   0  0  0  0  0  0  0  0  0  0  0  0
    5.5144   -3.9692   22.0944 C   0  0  0  0  0  0  0  0  0  0  0  0
    6.0514   -2.6614   22.5956 C   0  0  0  0  0  0  0  0  0  0  0  0
    7.1108   -2.4202   23.6298 N   0  0  0  0  0  0  0  0  0  0  0  0
    7.4283   -0.9818   23.9131 C   0  0  0  0  0  0  0  0  0  0  0  0
    6.7011    0.1054   23.1787 O   0  0  0  0  0  0  0  0  0  0  0  0
    7.8946   -3.4271   24.4182 C   0  0  0  0  0  0  0  0  0  0  0  0
    7.8127   -4.9240   24.3672 C   0  0  0  0  0  0  0  0  0  0  0  0
    6.9268   -5.7837   23.5151 O   0  0  0  0  0  0  0  0  0  0  0  0
    9.8937   -0.4122   24.5023 C   0  0  0  0  0  0  0  0  0  0  0  0
   10.2178    0.6475   23.4914 C   0  0  0  0  0  0  0  0  0  0  0  0
   11.6387    0.8659   23.0631 N   0  0  0  0  0  0  0  0  0  0  0  0
   12.7354    0.0246   23.6456 C   0  0  0  0  0  0  0  0  0  0  0  0
   12.4113   -1.0351   24.6566 C   0  0  0  0  0  0  0  0  0  0  0  0
   13.5080   -1.8764   25.2392 C   0  0  0  0  0  0  0  0  0  0  0  0
   13.1839   -2.9360   26.2501 C   0  0  0  0  0  0  0  0  0  0  0  0
   11.7630   -3.1544   26.6784 C   0  0  0  0  0  0  0  0  0  0  0  0
   10.6663   -2.3132   26.0959 C   0  0  0  0  0  0  0  0  0  0  0  0
   10.9905   -1.2535   25.0850 C   0  0  0  0  0  0  0  0  0  0  0  0
  3  2  1  0  0  0
  3  4  1  0  0  0
  4  5  1  0  0  0
  5  6  1  0  0  0
  6  7  1  0  0  0
  7  8  2  0  0  0
  7  1  1  0  0  0
  1 12  1  0  0  0
 12 13  2  0  0  0
 13 14  1  0  0  0
 14 15  2  0  0  0
 15 16  1  0  0  0
 16 17  2  0  0  0
 17 18  1  0  0  0
 18 19  2  0  0  0
 19 20  1  0  0  0
 20 21  2  0  0  0
  6  9  1  0  0  0
  9 10  1  0  0  0
 10 11  1  0  0  0
 11  3  1  0  0  0
 21 12  1  0  0  0
 21 16  1  0  0  0
M  END
> <minimizedAffinity>
-6.70961

> <CNNscore>
0.5535798073

> <CNNaffinity>
5.0157256126

> <CNN_VS>
2.7766044140

> <CNNaffinity_variance>
0.1906197816

$$$$



 21 23  0  0  0  0  0  0  0  0999 V2000
    8.0691   -2.6189   25.2402 C   0  0  0  0  0  0  0  0  0  0  0  0
    2.4746   -7.0691   23.3372 C   0  0  0  0  0  0  0  0  0  0  0  0
    3.5705   -6.1708   23.8290 C   0  0  0  0  0  0  0  0  0  0  0  0
    4.5441   -5.7022   22.7886 C   0  0  0  0  0  0  0  0  0  0  0  0
    5.7356   -4.8070   22.9583 C   0  0  0  0  0  0  0  0  0  0  0  0
    6.2478   -4.1592   24.2106 N   0  0  0  0  0  0  0  0  0  0  0  0
    7.4751   -3.3119   24.0499 C   0  0  0  0  0  0  0  0  0  0  0  0
    8.1083   -3.1575   22.6989 O   0  0  0  0  0  0  0  0  0  0  0  0
    5.6949   -4.2467   25.6022 C   0  0  0  0  0  0  0  0  0  0  0  0
    4.4934   -5.0035   26.0854 C   0  0  0  0  0  0  0  0  0  0  0  0
    3.5479   -5.8599   25.2962 O   0  0  0  0  0  0  0  0  0  0  0  0
    9.5137   -2.8279   25.5861 C   0  0  0  0  0  0  0  0  0  0  0  0
    9.9074   -3.9227   26.5329 C   0  0  0  0  0  0  0  0  0  0  0  0
   11.3520   -4.1317   26.8787 N   0  0  0  0  0  0  0  0  0  0  0  0
   12.4028   -3.2460   26.2778 C   0  0  0  0  0  0  0  0  0  0  0  0
   12.0091   -2.1512   25.3309 C   0  0  0  0  0  0  0  0  0  0  0  0
   13.0599   -1.2654   24.7299 C   0  0  0  0  0  0  0  0  0  0  0  0
   12.6662   -0.1707   23.7831 C   0  0  0  0  0  0  0  0  0  0  0  0
   11.2216    0.0383   23.4373 C   0  0  0  0  0  0  0  0  0  0  0  0
   10.1708   -0.8474   24.0382 C   0  0  0  0  0  0  0  0  0  0  0  0
   10.5645   -1.9421   24.9850 C   0  0  0  0  0  0  0  0  0  0  0  0
  3  2  1  0  0  0
  3  4  1  0  0  0
  4  5  1  0  0  0
  5  6  1  0  0  0
  6  7  1  0  0  0
  7  8  2  0  0  0
  7  1  1  0  0  0
  1 12  1  0  0  0
 12 13  2  0  0  0
 13 14  1  0  0  0
 14 15  2  0  0  0
 15 16  1  0  0  0
 16 17  2  0  0  0
 17 18  1  0  0  0
 18 19  2  0  0  0
 19 20  1  0  0  0
 20 21  2  0  0  0
  6  9  1  0  0  0
  9 10  1  0  0  0
 10 11  1  0  0  0
 11  3  1  0  0  0
 21 12  1  0  0  0
 21 16  1  0  0  0
M  END
> <minimizedAffinity>
-6.40844

> <CNNscore>
0.5524351597

> <CNNaffinity>
5.0409951210

> <CNN_VS>
2.7848229408

> <CNNaffinity_variance>
0.0471750088

$$$$
