


 35 40  0  0  0  0  0  0  0  0999 V2000
   -7.2814   -0.3466  -21.3433 C   0  0  0  0  0  0  0  0  0  0  0  0
   -8.5081   -0.4276  -22.2029 C   0  0  0  0  0  0  0  0  0  0  0  0
   -9.2632    0.8683  -22.2277 C   0  0  0  0  0  0  0  0  0  0  0  0
  -10.4646    0.6878  -23.1075 N   0  0  0  0  0  0  0  0  0  0  0  0
  -10.4520   -0.7195  -23.6264 C   0  0  0  0  0  0  0  0  0  0  0  0
  -11.4699   -1.3303  -24.5434 O   0  0  0  0  0  0  0  0  0  0  0  0
   -9.2428   -1.4089  -23.0673 C   0  0  0  0  0  0  0  0  0  0  0  0
  -10.0814   -2.2757  -23.9591 C   0  0  0  0  0  0  0  0  0  0  0  0
   -9.6777   -3.6968  -24.2188 N   0  0  0  0  0  0  0  0  0  0  0  0
   -8.4355   -4.2511  -23.5867 C   0  0  0  0  0  0  0  0  0  0  0  0
   -8.0318   -5.6723  -23.8465 O   0  0  0  0  0  0  0  0  0  0  0  0
   -7.5968   -3.3843  -22.6949 C   0  0  0  0  0  0  0  0  0  0  0  0
   -6.3545   -3.9386  -22.0629 C   0  0  0  0  0  0  0  0  0  0  0  0
   -5.5159   -3.0718  -21.1711 C   0  0  0  0  0  0  0  0  0  0  0  0
   -5.9196   -1.6506  -20.9114 C   0  0  0  0  0  0  0  0  0  0  0  0
   -5.0809   -0.7838  -20.0196 F   0  0  0  0  0  0  0  0  0  0  0  0
   -7.1618   -1.0963  -21.5434 C   0  0  0  0  0  0  0  0  0  0  0  0
   -8.0004   -1.9632  -22.4352 C   0  0  0  0  0  0  0  0  0  0  0  0
  -11.4974    1.7315  -23.4145 C   0  0  0  0  0  0  0  0  0  0  0  0
  -12.8783    1.6115  -22.8415 C   0  0  0  0  0  0  0  0  0  0  0  0
  -13.9110    2.6551  -23.1485 N   0  0  0  0  0  0  0  0  0  0  0  0
  -13.5627    3.8187  -24.0286 C   0  0  0  0  0  0  0  0  0  0  0  0
  -12.1817    3.9387  -24.6017 C   0  0  0  0  0  0  0  0  0  0  0  0
  -11.8335    5.1024  -25.4819 C   0  0  0  0  0  0  0  0  0  0  0  0
  -10.4524    5.2223  -26.0550 C   0  0  0  0  0  0  0  0  0  0  0  0
   -9.4198    4.1787  -25.7479 C   0  0  0  0  0  0  0  0  0  0  0  0
   -9.7681    3.0151  -24.8678 C   0  0  0  0  0  0  0  0  0  0  0  0
  -11.1490    2.8951  -24.2947 C   0  0  0  0  0  0  0  0  0  0  0  0
  -10.5164   -4.5637  -25.1106 C   0  0  0  0  0  0  0  0  0  0  0  0
   -9.8699   -5.3642  -26.2020 C   0  0  0  0  0  0  0  0  0  0  0  0
   -9.2665   -4.8137  -27.4601 N   0  0  0  0  0  0  0  0  0  0  0  0
   -8.7369   -5.9650  -28.2625 C   0  0  0  0  0  0  0  0  0  0  0  0
   -9.0131   -7.2272  -27.5004 N   0  0  0  0  0  0  0  0  0  0  0  0
   -9.7133   -6.8558  -26.2269 N   0  0  0  0  0  0  0  0  0  0  0  0
   -8.7764   -8.1392  -27.7859 H   0  0  0  0  0  0  0  0  0  0  0  0
  2  1  1  0  0  0
  2  3  1  0  0  0
  3  4  1  0  0  0
  4 19  1  0  0  0
 19 20  2  0  0  0
 20 21  1  0  0  0
 21 22  2  0  0  0
 22 23  1  0  0  0
 23 24  2  0  0  0
 24 25  1  0  0  0
 25 26  2  0  0  0
 26 27  1  0  0  0
 27 28  2  0  0  0
  4  5  1  0  0  0
  5  6  2  0  0  0
  5  7  1  0  0  0
  7  8  1  0  0  0
  8  9  1  0  0  0
  9 29  1  0  0  0
 29 30  1  0  0  0
 30 31  1  0  0  0
 31 32  2  0  0  0
 32 33  1  0  0  0
 33 34  1  0  0  0
  9 10  1  0  0  0
 10 11  2  0  0  0
 10 12  1  0  0  0
 12 13  2  0  0  0
 13 14  1  0  0  0
 14 15  2  0  0  0
 15 16  1  0  0  0
 15 17  1  0  0  0
 17 18  2  0  0  0
  7  2  1  0  0  0
 34 30  2  0  0  0
 18 12  1  0  0  0
 28 19  1  0  0  0
 18  7  1  0  0  0
 28 23  1  0  0  0
 33 35  1  0  0  0
M  END
> <minimizedAffinity>
-9.29616

> <CNNscore>
0.4580958784

> <CNNaffinity>
6.2114138603

> <CNN_VS>
2.8454229832

> <CNNaffinity_variance>
0.3868361413

$$$$



 35 40  0  0  0  0  0  0  0  0999 V2000
   -9.5267   -2.5010  -23.7035 C   0  0  0  0  0  0  0  0  0  0  0  0
   -8.2830   -2.7281  -22.8961 C   0  0  0  0  0  0  0  0  0  0  0  0
   -8.0109   -1.5942  -21.9526 C   0  0  0  0  0  0  0  0  0  0  0  0
   -6.7557   -1.9125  -21.1954 N   0  0  0  0  0  0  0  0  0  0  0  0
   -6.2522   -3.2430  -21.6710 C   0  0  0  0  0  0  0  0  0  0  0  0
   -5.0209   -3.9460  -21.1813 O   0  0  0  0  0  0  0  0  0  0  0  0
   -7.1961   -3.7471  -22.7221 C   0  0  0  0  0  0  0  0  0  0  0  0
   -6.0484   -4.6705  -22.4394 C   0  0  0  0  0  0  0  0  0  0  0  0
   -5.9268   -5.9661  -23.1854 N   0  0  0  0  0  0  0  0  0  0  0  0
   -6.9529   -6.3383  -24.2142 C   0  0  0  0  0  0  0  0  0  0  0  0
   -6.8313   -7.6339  -24.9603 O   0  0  0  0  0  0  0  0  0  0  0  0
   -8.1008   -5.4149  -24.4970 C   0  0  0  0  0  0  0  0  0  0  0  0
   -9.1269   -5.7872  -25.5257 C   0  0  0  0  0  0  0  0  0  0  0  0
  -10.2747   -4.8638  -25.8084 C   0  0  0  0  0  0  0  0  0  0  0  0
  -10.3963   -3.5682  -25.0624 C   0  0  0  0  0  0  0  0  0  0  0  0
  -11.5441   -2.6448  -25.3451 F   0  0  0  0  0  0  0  0  0  0  0  0
   -9.3701   -3.1959  -24.0336 C   0  0  0  0  0  0  0  0  0  0  0  0
   -8.2224   -4.1193  -23.7509 C   0  0  0  0  0  0  0  0  0  0  0  0
   -6.1163   -1.0514  -20.1467 C   0  0  0  0  0  0  0  0  0  0  0  0
   -6.6487   -1.0573  -18.7445 C   0  0  0  0  0  0  0  0  0  0  0  0
   -6.0093   -0.1962  -17.6958 N   0  0  0  0  0  0  0  0  0  0  0  0
   -4.8375    0.6708  -18.0495 C   0  0  0  0  0  0  0  0  0  0  0  0
   -4.3051    0.6768  -19.4519 C   0  0  0  0  0  0  0  0  0  0  0  0
   -3.1333    1.5439  -19.8056 C   0  0  0  0  0  0  0  0  0  0  0  0
   -2.6010    1.5498  -21.2079 C   0  0  0  0  0  0  0  0  0  0  0  0
   -3.2404    0.6887  -22.2565 C   0  0  0  0  0  0  0  0  0  0  0  0
   -4.4122   -0.1783  -21.9028 C   0  0  0  0  0  0  0  0  0  0  0  0
   -4.9445   -0.1843  -20.5005 C   0  0  0  0  0  0  0  0  0  0  0  0
   -4.7789   -6.8895  -22.9027 C   0  0  0  0  0  0  0  0  0  0  0  0
   -3.5358   -6.8187  -23.7391 C   0  0  0  0  0  0  0  0  0  0  0  0
   -3.4805   -6.5661  -25.2166 N   0  0  0  0  0  0  0  0  0  0  0  0
   -2.0403   -6.5794  -25.6355 C   0  0  0  0  0  0  0  0  0  0  0  0
   -1.2054   -6.8402  -24.4168 N   0  0  0  0  0  0  0  0  0  0  0  0
   -2.1297   -6.9881  -23.2448 N   0  0  0  0  0  0  0  0  0  0  0  0
   -0.2233   -6.9032  -24.3908 H   0  0  0  0  0  0  0  0  0  0  0  0
  2  1  1  0  0  0
  2  3  1  0  0  0
  3  4  1  0  0  0
  4 19  1  0  0  0
 19 20  2  0  0  0
 20 21  1  0  0  0
 21 22  2  0  0  0
 22 23  1  0  0  0
 23 24  2  0  0  0
 24 25  1  0  0  0
 25 26  2  0  0  0
 26 27  1  0  0  0
 27 28  2  0  0  0
  4  5  1  0  0  0
  5  6  2  0  0  0
  5  7  1  0  0  0
  7  8  1  0  0  0
  8  9  1  0  0  0
  9 29  1  0  0  0
 29 30  1  0  0  0
 30 31  1  0  0  0
 31 32  2  0  0  0
 32 33  1  0  0  0
 33 34  1  0  0  0
  9 10  1  0  0  0
 10 11  2  0  0  0
 10 12  1  0  0  0
 12 13  2  0  0  0
 13 14  1  0  0  0
 14 15  2  0  0  0
 15 16  1  0  0  0
 15 17  1  0  0  0
 17 18  2  0  0  0
  7  2  1  0  0  0
 34 30  2  0  0  0
 18 12  1  0  0  0
 28 19  1  0  0  0
 18  7  1  0  0  0
 28 23  1  0  0  0
 33 35  1  0  0  0
M  END
> <minimizedAffinity>
-8.34230

> <CNNscore>
0.4120981097

> <CNNaffinity>
6.3687858582

> <CNN_VS>
2.6245646477

> <CNNaffinity_variance>
0.0760185495

$$$$



 35 40  0  0  0  0  0  0  0  0999 V2000
   -5.9428    3.6013  -25.6064 C   0  0  0  0  0  0  0  0  0  0  0  0
   -6.6522    2.8434  -24.5236 C   0  0  0  0  0  0  0  0  0  0  0  0
   -8.0826    2.5638  -24.8780 C   0  0  0  0  0  0  0  0  0  0  0  0
   -8.7026    1.8074  -23.7407 N   0  0  0  0  0  0  0  0  0  0  0  0
   -7.6553    1.6195  -22.6835 C   0  0  0  0  0  0  0  0  0  0  0  0
   -7.8424    0.9149  -21.3725 O   0  0  0  0  0  0  0  0  0  0  0  0
   -6.3880    2.2597  -23.1673 C   0  0  0  0  0  0  0  0  0  0  0  0
   -6.2736    1.6287  -21.8113 C   0  0  0  0  0  0  0  0  0  0  0  0
   -4.9709    1.6769  -21.0692 N   0  0  0  0  0  0  0  0  0  0  0  0
   -3.7827    2.3560  -21.6830 C   0  0  0  0  0  0  0  0  0  0  0  0
   -2.4801    2.4042  -20.9409 O   0  0  0  0  0  0  0  0  0  0  0  0
   -3.8971    2.9871  -23.0391 C   0  0  0  0  0  0  0  0  0  0  0  0
   -2.7089    3.6662  -23.6529 C   0  0  0  0  0  0  0  0  0  0  0  0
   -2.8233    4.2972  -25.0089 C   0  0  0  0  0  0  0  0  0  0  0  0
   -4.1259    4.2490  -25.7510 C   0  0  0  0  0  0  0  0  0  0  0  0
   -4.2403    4.8801  -27.1071 F   0  0  0  0  0  0  0  0  0  0  0  0
   -5.3142    3.5699  -25.1372 C   0  0  0  0  0  0  0  0  0  0  0  0
   -5.1997    2.9389  -23.7812 C   0  0  0  0  0  0  0  0  0  0  0  0
  -10.1209    1.3238  -23.6726 C   0  0  0  0  0  0  0  0  0  0  0  0
  -10.4103   -0.1472  -23.6279 C   0  0  0  0  0  0  0  0  0  0  0  0
  -11.8286   -0.6308  -23.5598 N   0  0  0  0  0  0  0  0  0  0  0  0
  -12.9574    0.3567  -23.5364 C   0  0  0  0  0  0  0  0  0  0  0  0
  -12.6679    1.8279  -23.5810 C   0  0  0  0  0  0  0  0  0  0  0  0
  -13.7968    2.8155  -23.5576 C   0  0  0  0  0  0  0  0  0  0  0  0
  -13.5072    4.2866  -23.6023 C   0  0  0  0  0  0  0  0  0  0  0  0
  -12.0889    4.7701  -23.6704 C   0  0  0  0  0  0  0  0  0  0  0  0
  -10.9602    3.7825  -23.6938 C   0  0  0  0  0  0  0  0  0  0  0  0
  -11.2496    2.3115  -23.6492 C   0  0  0  0  0  0  0  0  0  0  0  0
   -4.8565    1.0459  -19.7131 C   0  0  0  0  0  0  0  0  0  0  0  0
   -5.1291   -0.4192  -19.5423 C   0  0  0  0  0  0  0  0  0  0  0  0
   -5.0168   -1.4672  -20.6095 N   0  0  0  0  0  0  0  0  0  0  0  0
   -5.3801   -2.7892  -20.0010 C   0  0  0  0  0  0  0  0  0  0  0  0
   -5.7170   -2.5583  -18.5576 N   0  0  0  0  0  0  0  0  0  0  0  0
   -5.5619   -1.0935  -18.2742 N   0  0  0  0  0  0  0  0  0  0  0  0
   -5.9917   -3.2471  -17.9101 H   0  0  0  0  0  0  0  0  0  0  0  0
  2  1  1  0  0  0
  2  3  1  0  0  0
  3  4  1  0  0  0
  4 19  1  0  0  0
 19 20  2  0  0  0
 20 21  1  0  0  0
 21 22  2  0  0  0
 22 23  1  0  0  0
 23 24  2  0  0  0
 24 25  1  0  0  0
 25 26  2  0  0  0
 26 27  1  0  0  0
 27 28  2  0  0  0
  4  5  1  0  0  0
  5  6  2  0  0  0
  5  7  1  0  0  0
  7  8  1  0  0  0
  8  9  1  0  0  0
  9 29  1  0  0  0
 29 30  1  0  0  0
 30 31  1  0  0  0
 31 32  2  0  0  0
 32 33  1  0  0  0
 33 34  1  0  0  0
  9 10  1  0  0  0
 10 11  2  0  0  0
 10 12  1  0  0  0
 12 13  2  0  0  0
 13 14  1  0  0  0
 14 15  2  0  0  0
 15 16  1  0  0  0
 15 17  1  0  0  0
 17 18  2  0  0  0
  7  2  1  0  0  0
 34 30  2  0  0  0
 18 12  1  0  0  0
 28 19  1  0  0  0
 18  7  1  0  0  0
 28 23  1  0  0  0
 33 35  1  0  0  0
M  END
> <minimizedAffinity>
-8.01951

> <CNNscore>
0.3062779605

> <CNNaffinity>
5.7959556580

> <CNN_VS>
1.7751734257

> <CNNaffinity_variance>
0.2960021794

$$$$



 35 40  0  0  0  0  0  0  0  0999 V2000
   -5.8771   -5.4202  -22.9876 C   0  0  0  0  0  0  0  0  0  0  0  0
   -6.4702   -4.1303  -22.5034 C   0  0  0  0  0  0  0  0  0  0  0  0
   -5.6084   -3.4690  -21.4689 C   0  0  0  0  0  0  0  0  0  0  0  0
   -6.2815   -2.1957  -21.0501 N   0  0  0  0  0  0  0  0  0  0  0  0
   -7.5593   -2.0700  -21.8257 C   0  0  0  0  0  0  0  0  0  0  0  0
   -8.5470   -0.9459  -21.7214 O   0  0  0  0  0  0  0  0  0  0  0  0
   -7.6759   -3.2656  -22.7239 C   0  0  0  0  0  0  0  0  0  0  0  0
   -8.8212   -2.3037  -22.8370 C   0  0  0  0  0  0  0  0  0  0  0  0
   -9.9460   -2.5852  -23.7886 N   0  0  0  0  0  0  0  0  0  0  0  0
   -9.9255   -3.8288  -24.6271 C   0  0  0  0  0  0  0  0  0  0  0  0
  -11.0503   -4.1103  -25.5787 O   0  0  0  0  0  0  0  0  0  0  0  0
   -8.7801   -4.7908  -24.5141 C   0  0  0  0  0  0  0  0  0  0  0  0
   -8.7596   -6.0343  -25.3526 C   0  0  0  0  0  0  0  0  0  0  0  0
   -7.6143   -6.9963  -25.2396 C   0  0  0  0  0  0  0  0  0  0  0  0
   -6.4895   -6.7147  -24.2879 C   0  0  0  0  0  0  0  0  0  0  0  0
   -5.3441   -7.6767  -24.1749 F   0  0  0  0  0  0  0  0  0  0  0  0
   -6.5100   -5.4712  -23.4494 C   0  0  0  0  0  0  0  0  0  0  0  0
   -7.6553   -4.5092  -23.5625 C   0  0  0  0  0  0  0  0  0  0  0  0
   -5.7673   -1.2194  -20.0340 C   0  0  0  0  0  0  0  0  0  0  0  0
   -6.2890   -1.2553  -18.6282 C   0  0  0  0  0  0  0  0  0  0  0  0
   -5.7747   -0.2791  -17.6122 N   0  0  0  0  0  0  0  0  0  0  0  0
   -4.7386    0.7332  -18.0020 C   0  0  0  0  0  0  0  0  0  0  0  0
   -4.2169    0.7691  -19.4079 C   0  0  0  0  0  0  0  0  0  0  0  0
   -3.1808    1.7814  -19.7977 C   0  0  0  0  0  0  0  0  0  0  0  0
   -2.6591    1.8173  -21.2037 C   0  0  0  0  0  0  0  0  0  0  0  0
   -3.1735    0.8411  -22.2196 C   0  0  0  0  0  0  0  0  0  0  0  0
   -4.2095   -0.1712  -21.8298 C   0  0  0  0  0  0  0  0  0  0  0  0
   -4.7312   -0.2072  -20.4240 C   0  0  0  0  0  0  0  0  0  0  0  0
  -11.0914   -1.6232  -23.9016 C   0  0  0  0  0  0  0  0  0  0  0  0
  -10.8437   -0.1472  -23.8024 C   0  0  0  0  0  0  0  0  0  0  0  0
   -9.8718    0.6413  -24.6292 N   0  0  0  0  0  0  0  0  0  0  0  0
   -9.9517    2.0753  -24.1967 C   0  0  0  0  0  0  0  0  0  0  0  0
  -10.9731    2.1732  -23.1025 N   0  0  0  0  0  0  0  0  0  0  0  0
  -11.5243    0.7996  -22.8588 N   0  0  0  0  0  0  0  0  0  0  0  0
  -11.2356    2.9947  -22.6277 H   0  0  0  0  0  0  0  0  0  0  0  0
  2  1  1  0  0  0
  2  3  1  0  0  0
  3  4  1  0  0  0
  4 19  1  0  0  0
 19 20  2  0  0  0
 20 21  1  0  0  0
 21 22  2  0  0  0
 22 23  1  0  0  0
 23 24  2  0  0  0
 24 25  1  0  0  0
 25 26  2  0  0  0
 26 27  1  0  0  0
 27 28  2  0  0  0
  4  5  1  0  0  0
  5  6  2  0  0  0
  5  7  1  0  0  0
  7  8  1  0  0  0
  8  9  1  0  0  0
  9 29  1  0  0  0
 29 30  1  0  0  0
 30 31  1  0  0  0
 31 32  2  0  0  0
 32 33  1  0  0  0
 33 34  1  0  0  0
  9 10  1  0  0  0
 10 11  2  0  0  0
 10 12  1  0  0  0
 12 13  2  0  0  0
 13 14  1  0  0  0
 14 15  2  0  0  0
 15 16  1  0  0  0
 15 17  1  0  0  0
 17 18  2  0  0  0
  7  2  1  0  0  0
 34 30  2  0  0  0
 18 12  1  0  0  0
 28 19  1  0  0  0
 18  7  1  0  0  0
 28 23  1  0  0  0
 33 35  1  0  0  0
M  END
> <minimizedAffinity>
-8.82912

> <CNNscore>
0.3049865365

> <CNNaffinity>
6.1518774033

> <CNN_VS>
1.8762397766

> <CNNaffinity_variance>
0.0864082649

$$$$



 35 40  0  0  0  0  0  0  0  0999 V2000
   -6.6471    0.6045  -21.5245 C   0  0  0  0  0  0  0  0  0  0  0  0
   -7.9082    0.5181  -22.3321 C   0  0  0  0  0  0  0  0  0  0  0  0
   -8.5247    1.8669  -22.5573 C   0  0  0  0  0  0  0  0  0  0  0  0
   -9.7719    1.6770  -23.3687 N   0  0  0  0  0  0  0  0  0  0  0  0
   -9.9262    0.2107  -23.6450 C   0  0  0  0  0  0  0  0  0  0  0  0
  -11.0372   -0.4273  -24.4251 O   0  0  0  0  0  0  0  0  0  0  0  0
   -8.7744   -0.5055  -23.0044 C   0  0  0  0  0  0  0  0  0  0  0  0
   -9.7329   -1.4100  -23.7206 C   0  0  0  0  0  0  0  0  0  0  0  0
   -9.4900   -2.8899  -23.7475 N   0  0  0  0  0  0  0  0  0  0  0  0
   -8.2884   -3.4654  -23.0583 C   0  0  0  0  0  0  0  0  0  0  0  0
   -8.0454   -4.9453  -23.0852 O   0  0  0  0  0  0  0  0  0  0  0  0
   -7.3297   -2.5609  -22.3421 C   0  0  0  0  0  0  0  0  0  0  0  0
   -6.1282   -3.1363  -21.6528 C   0  0  0  0  0  0  0  0  0  0  0  0
   -5.1696   -2.2318  -20.9367 C   0  0  0  0  0  0  0  0  0  0  0  0
   -5.4126   -0.7518  -20.9098 C   0  0  0  0  0  0  0  0  0  0  0  0
   -4.4539    0.1527  -20.1935 F   0  0  0  0  0  0  0  0  0  0  0  0
   -6.6141   -0.1764  -21.5990 C   0  0  0  0  0  0  0  0  0  0  0  0
   -7.5727   -1.0809  -22.3151 C   0  0  0  0  0  0  0  0  0  0  0  0
  -10.7015    2.7625  -23.8239 C   0  0  0  0  0  0  0  0  0  0  0  0
  -12.0115    2.9706  -23.1236 C   0  0  0  0  0  0  0  0  0  0  0  0
  -12.9412    4.0562  -23.5787 N   0  0  0  0  0  0  0  0  0  0  0  0
  -12.5608    4.9337  -24.7342 C   0  0  0  0  0  0  0  0  0  0  0  0
  -11.2507    4.7257  -25.4346 C   0  0  0  0  0  0  0  0  0  0  0  0
  -10.8703    5.6033  -26.5901 C   0  0  0  0  0  0  0  0  0  0  0  0
   -9.5602    5.3951  -27.2904 C   0  0  0  0  0  0  0  0  0  0  0  0
   -8.6306    4.3095  -26.8352 C   0  0  0  0  0  0  0  0  0  0  0  0
   -9.0111    3.4320  -25.6797 C   0  0  0  0  0  0  0  0  0  0  0  0
  -10.3210    3.6401  -24.9794 C   0  0  0  0  0  0  0  0  0  0  0  0
  -10.4486   -3.7945  -24.4637 C   0  0  0  0  0  0  0  0  0  0  0  0
  -10.0795   -4.3736  -25.7973 C   0  0  0  0  0  0  0  0  0  0  0  0
  -10.3033   -5.7905  -26.2356 N   0  0  0  0  0  0  0  0  0  0  0  0
   -9.7839   -5.9301  -27.6358 C   0  0  0  0  0  0  0  0  0  0  0  0
   -9.2391   -4.5994  -28.0629 N   0  0  0  0  0  0  0  0  0  0  0  0
   -9.4218   -3.6374  -26.9266 N   0  0  0  0  0  0  0  0  0  0  0  0
   -8.8329   -4.3935  -28.9358 H   0  0  0  0  0  0  0  0  0  0  0  0
  2  1  1  0  0  0
  2  3  1  0  0  0
  3  4  1  0  0  0
  4 19  1  0  0  0
 19 20  2  0  0  0
 20 21  1  0  0  0
 21 22  2  0  0  0
 22 23  1  0  0  0
 23 24  2  0  0  0
 24 25  1  0  0  0
 25 26  2  0  0  0
 26 27  1  0  0  0
 27 28  2  0  0  0
  4  5  1  0  0  0
  5  6  2  0  0  0
  5  7  1  0  0  0
  7  8  1  0  0  0
  8  9  1  0  0  0
  9 29  1  0  0  0
 29 30  1  0  0  0
 30 31  1  0  0  0
 31 32  2  0  0  0
 32 33  1  0  0  0
 33 34  1  0  0  0
  9 10  1  0  0  0
 10 11  2  0  0  0
 10 12  1  0  0  0
 12 13  2  0  0  0
 13 14  1  0  0  0
 14 15  2  0  0  0
 15 16  1  0  0  0
 15 17  1  0  0  0
 17 18  2  0  0  0
  7  2  1  0  0  0
 34 30  2  0  0  0
 18 12  1  0  0  0
 28 19  1  0  0  0
 18  7  1  0  0  0
 28 23  1  0  0  0
 33 35  1  0  0  0
M  END
> <minimizedAffinity>
-8.06609

> <CNNscore>
0.2754045725

> <CNNaffinity>
5.9914941788

> <CNN_VS>
1.6500848532

> <CNNaffinity_variance>
0.1562373191

$$$$



 35 40  0  0  0  0  0  0  0  0999 V2000
  -11.6186   -3.0157  -23.2687 C   0  0  0  0  0  0  0  0  0  0  0  0
  -10.2859   -2.5482  -23.7742 C   0  0  0  0  0  0  0  0  0  0  0  0
   -9.3343   -3.6880  -23.9870 C   0  0  0  0  0  0  0  0  0  0  0  0
   -8.0389   -3.1228  -24.4894 N   0  0  0  0  0  0  0  0  0  0  0  0
   -8.1900   -1.6336  -24.5872 C   0  0  0  0  0  0  0  0  0  0  0  0
   -7.1371   -0.6689  -25.0464 O   0  0  0  0  0  0  0  0  0  0  0  0
   -9.5787   -1.2784  -24.1452 C   0  0  0  0  0  0  0  0  0  0  0  0
   -8.7467   -0.0979  -24.5501 C   0  0  0  0  0  0  0  0  0  0  0  0
   -9.3264    1.2843  -24.4896 N   0  0  0  0  0  0  0  0  0  0  0  0
  -10.7380    1.4858  -24.0242 C   0  0  0  0  0  0  0  0  0  0  0  0
  -11.3177    2.8680  -23.9637 O   0  0  0  0  0  0  0  0  0  0  0  0
  -11.5701    0.3052  -23.6193 C   0  0  0  0  0  0  0  0  0  0  0  0
  -12.9817    0.5068  -23.1539 C   0  0  0  0  0  0  0  0  0  0  0  0
  -13.8136   -0.6738  -22.7490 C   0  0  0  0  0  0  0  0  0  0  0  0
  -13.2340   -2.0560  -22.8094 C   0  0  0  0  0  0  0  0  0  0  0  0
  -14.0660   -3.2366  -22.4045 F   0  0  0  0  0  0  0  0  0  0  0  0
  -11.8223   -2.2575  -23.2748 C   0  0  0  0  0  0  0  0  0  0  0  0
  -10.9904   -1.0769  -23.6797 C   0  0  0  0  0  0  0  0  0  0  0  0
   -6.8086   -3.9086  -24.8337 C   0  0  0  0  0  0  0  0  0  0  0  0
   -5.9278   -3.4660  -25.9643 C   0  0  0  0  0  0  0  0  0  0  0  0
   -4.6974   -4.2519  -26.3085 N   0  0  0  0  0  0  0  0  0  0  0  0
   -4.3479   -5.4804  -25.5222 C   0  0  0  0  0  0  0  0  0  0  0  0
   -5.2287   -5.9231  -24.3916 C   0  0  0  0  0  0  0  0  0  0  0  0
   -4.8790   -7.1518  -23.6052 C   0  0  0  0  0  0  0  0  0  0  0  0
   -5.7599   -7.5944  -22.4747 C   0  0  0  0  0  0  0  0  0  0  0  0
   -6.9902   -6.8085  -22.1305 C   0  0  0  0  0  0  0  0  0  0  0  0
   -7.3398   -5.5799  -22.9168 C   0  0  0  0  0  0  0  0  0  0  0  0
   -6.4590   -5.1372  -24.0473 C   0  0  0  0  0  0  0  0  0  0  0  0
   -8.4943    2.4649  -24.8945 C   0  0  0  0  0  0  0  0  0  0  0  0
   -8.0303    3.4459  -23.8591 C   0  0  0  0  0  0  0  0  0  0  0  0
   -6.8521    3.2737  -22.9468 N   0  0  0  0  0  0  0  0  0  0  0  0
   -6.7565    4.4927  -22.0780 C   0  0  0  0  0  0  0  0  0  0  0  0
   -7.8756    5.4184  -22.4533 N   0  0  0  0  0  0  0  0  0  0  0  0
   -8.6628    4.7714  -23.5541 N   0  0  0  0  0  0  0  0  0  0  0  0
   -8.0609    6.2964  -22.0483 H   0  0  0  0  0  0  0  0  0  0  0  0
  2  1  1  0  0  0
  2  3  1  0  0  0
  3  4  1  0  0  0
  4 19  1  0  0  0
 19 20  2  0  0  0
 20 21  1  0  0  0
 21 22  2  0  0  0
 22 23  1  0  0  0
 23 24  2  0  0  0
 24 25  1  0  0  0
 25 26  2  0  0  0
 26 27  1  0  0  0
 27 28  2  0  0  0
  4  5  1  0  0  0
  5  6  2  0  0  0
  5  7  1  0  0  0
  7  8  1  0  0  0
  8  9  1  0  0  0
  9 29  1  0  0  0
 29 30  1  0  0  0
 30 31  1  0  0  0
 31 32  2  0  0  0
 32 33  1  0  0  0
 33 34  1  0  0  0
  9 10  1  0  0  0
 10 11  2  0  0  0
 10 12  1  0  0  0
 12 13  2  0  0  0
 13 14  1  0  0  0
 14 15  2  0  0  0
 15 16  1  0  0  0
 15 17  1  0  0  0
 17 18  2  0  0  0
  7  2  1  0  0  0
 34 30  2  0  0  0
 18 12  1  0  0  0
 28 19  1  0  0  0
 18  7  1  0  0  0
 28 23  1  0  0  0
 33 35  1  0  0  0
M  END
> <minimizedAffinity>
-7.71601

> <CNNscore>
0.2536641359

> <CNNaffinity>
6.4108757973

> <CNN_VS>
1.6262092590

> <CNNaffinity_variance>
0.0981613249

$$$$



 35 40  0  0  0  0  0  0  0  0999 V2000
   -5.9568    3.8828  -25.2270 C   0  0  0  0  0  0  0  0  0  0  0  0
   -6.5915    2.9771  -24.2135 C   0  0  0  0  0  0  0  0  0  0  0  0
   -7.9818    2.5773  -24.6099 C   0  0  0  0  0  0  0  0  0  0  0  0
   -8.5282    1.6785  -23.5406 N   0  0  0  0  0  0  0  0  0  0  0  0
   -7.4756    1.5228  -22.4834 C   0  0  0  0  0  0  0  0  0  0  0  0
   -7.5984    0.7076  -21.2302 O   0  0  0  0  0  0  0  0  0  0  0  0
   -6.2786    2.3254  -22.8993 C   0  0  0  0  0  0  0  0  0  0  0  0
   -6.1096    1.6112  -21.5911 C   0  0  0  0  0  0  0  0  0  0  0  0
   -4.8253    1.7395  -20.8269 N   0  0  0  0  0  0  0  0  0  0  0  0
   -3.7099    2.5821  -21.3709 C   0  0  0  0  0  0  0  0  0  0  0  0
   -2.4256    2.7104  -20.6067 O   0  0  0  0  0  0  0  0  0  0  0  0
   -3.8788    3.2964  -22.6791 C   0  0  0  0  0  0  0  0  0  0  0  0
   -2.7634    4.1390  -23.2230 C   0  0  0  0  0  0  0  0  0  0  0  0
   -2.9324    4.8532  -24.5311 C   0  0  0  0  0  0  0  0  0  0  0  0
   -4.2167    4.7249  -25.2953 C   0  0  0  0  0  0  0  0  0  0  0  0
   -4.3857    5.4392  -26.6035 F   0  0  0  0  0  0  0  0  0  0  0  0
   -5.3321    3.8823  -24.7514 C   0  0  0  0  0  0  0  0  0  0  0  0
   -5.1632    3.1681  -23.4433 C   0  0  0  0  0  0  0  0  0  0  0  0
   -9.8885    1.0463  -23.5303 C   0  0  0  0  0  0  0  0  0  0  0  0
  -11.1103    1.8987  -23.3564 C   0  0  0  0  0  0  0  0  0  0  0  0
  -12.4706    1.2665  -23.3461 N   0  0  0  0  0  0  0  0  0  0  0  0
  -12.6088   -0.2181  -23.5097 C   0  0  0  0  0  0  0  0  0  0  0  0
  -11.3869   -1.0705  -23.6835 C   0  0  0  0  0  0  0  0  0  0  0  0
  -11.5252   -2.5552  -23.8471 C   0  0  0  0  0  0  0  0  0  0  0  0
  -10.3032   -3.4076  -24.0209 C   0  0  0  0  0  0  0  0  0  0  0  0
   -8.9431   -2.7754  -24.0312 C   0  0  0  0  0  0  0  0  0  0  0  0
   -8.8048   -1.2908  -23.8677 C   0  0  0  0  0  0  0  0  0  0  0  0
  -10.0267   -0.4384  -23.6938 C   0  0  0  0  0  0  0  0  0  0  0  0
   -4.6564    1.0252  -19.5187 C   0  0  0  0  0  0  0  0  0  0  0  0
   -5.0191   -0.4257  -19.4041 C   0  0  0  0  0  0  0  0  0  0  0  0
   -4.9922   -1.4317  -20.5164 N   0  0  0  0  0  0  0  0  0  0  0  0
   -5.4289   -2.7532  -19.9569 C   0  0  0  0  0  0  0  0  0  0  0  0
   -5.7257   -2.5639  -18.4987 N   0  0  0  0  0  0  0  0  0  0  0  0
   -5.4724   -1.1254  -18.1571 N   0  0  0  0  0  0  0  0  0  0  0  0
   -6.0327   -3.2613  -17.8754 H   0  0  0  0  0  0  0  0  0  0  0  0
  2  1  1  0  0  0
  2  3  1  0  0  0
  3  4  1  0  0  0
  4 19  1  0  0  0
 19 20  2  0  0  0
 20 21  1  0  0  0
 21 22  2  0  0  0
 22 23  1  0  0  0
 23 24  2  0  0  0
 24 25  1  0  0  0
 25 26  2  0  0  0
 26 27  1  0  0  0
 27 28  2  0  0  0
  4  5  1  0  0  0
  5  6  2  0  0  0
  5  7  1  0  0  0
  7  8  1  0  0  0
  8  9  1  0  0  0
  9 29  1  0  0  0
 29 30  1  0  0  0
 30 31  1  0  0  0
 31 32  2  0  0  0
 32 33  1  0  0  0
 33 34  1  0  0  0
  9 10  1  0  0  0
 10 11  2  0  0  0
 10 12  1  0  0  0
 12 13  2  0  0  0
 13 14  1  0  0  0
 14 15  2  0  0  0
 15 16  1  0  0  0
 15 17  1  0  0  0
 17 18  2  0  0  0
  7  2  1  0  0  0
 34 30  2  0  0  0
 18 12  1  0  0  0
 28 19  1  0  0  0
 18  7  1  0  0  0
 28 23  1  0  0  0
 33 35  1  0  0  0
M  END
> <minimizedAffinity>
-7.84334

> <CNNscore>
0.2318267822

> <CNNaffinity>
5.8877644539

> <CNN_VS>
1.3649414778

> <CNNaffinity_variance>
0.0942212194

$$$$



 35 40  0  0  0  0  0  0  0  0999 V2000
   -8.9413   -3.8578  -24.5356 C   0  0  0  0  0  0  0  0  0  0  0  0
   -9.0415   -2.5857  -23.7470 C   0  0  0  0  0  0  0  0  0  0  0  0
  -10.1246   -1.6869  -24.2657 C   0  0  0  0  0  0  0  0  0  0  0  0
  -10.1458   -0.4497  -23.4179 N   0  0  0  0  0  0  0  0  0  0  0  0
   -9.0759   -0.5839  -22.3752 C   0  0  0  0  0  0  0  0  0  0  0  0
   -8.7463    0.4249  -21.3151 O   0  0  0  0  0  0  0  0  0  0  0  0
   -8.3933   -1.9041  -22.5786 C   0  0  0  0  0  0  0  0  0  0  0  0
   -7.8458   -1.1042  -21.4339 C   0  0  0  0  0  0  0  0  0  0  0  0
   -6.7139   -1.6473  -20.6130 N   0  0  0  0  0  0  0  0  0  0  0  0
   -6.1295   -2.9903  -20.9369 C   0  0  0  0  0  0  0  0  0  0  0  0
   -4.9976   -3.5334  -20.1160 O   0  0  0  0  0  0  0  0  0  0  0  0
   -6.6771   -3.7902  -22.0816 C   0  0  0  0  0  0  0  0  0  0  0  0
   -6.0927   -5.1332  -22.4054 C   0  0  0  0  0  0  0  0  0  0  0  0
   -6.6403   -5.9331  -23.5501 C   0  0  0  0  0  0  0  0  0  0  0  0
   -7.7722   -5.3900  -24.3710 C   0  0  0  0  0  0  0  0  0  0  0  0
   -8.3197   -6.1899  -25.5157 F   0  0  0  0  0  0  0  0  0  0  0  0
   -8.3565   -4.0470  -24.0472 C   0  0  0  0  0  0  0  0  0  0  0  0
   -7.8090   -3.2471  -22.9025 C   0  0  0  0  0  0  0  0  0  0  0  0
  -11.0740    0.7169  -23.5836 C   0  0  0  0  0  0  0  0  0  0  0  0
  -12.5167    0.5887  -23.1937 C   0  0  0  0  0  0  0  0  0  0  0  0
  -13.4449    1.7553  -23.3594 N   0  0  0  0  0  0  0  0  0  0  0  0
  -12.9304    3.0501  -23.9150 C   0  0  0  0  0  0  0  0  0  0  0  0
  -11.4876    3.1783  -24.3049 C   0  0  0  0  0  0  0  0  0  0  0  0
  -10.9730    4.4732  -24.8605 C   0  0  0  0  0  0  0  0  0  0  0  0
   -9.5302    4.6013  -25.2504 C   0  0  0  0  0  0  0  0  0  0  0  0
   -8.6021    3.4347  -25.0847 C   0  0  0  0  0  0  0  0  0  0  0  0
   -9.1167    2.1399  -24.5291 C   0  0  0  0  0  0  0  0  0  0  0  0
  -10.5594    2.0117  -24.1392 C   0  0  0  0  0  0  0  0  0  0  0  0
   -6.1664   -0.8474  -19.4683 C   0  0  0  0  0  0  0  0  0  0  0  0
   -4.9873    0.0553  -19.6802 C   0  0  0  0  0  0  0  0  0  0  0  0
   -4.1963    0.1895  -20.9476 N   0  0  0  0  0  0  0  0  0  0  0  0
   -3.1123    1.1994  -20.7127 C   0  0  0  0  0  0  0  0  0  0  0  0
   -3.2334    1.6893  -19.3001 N   0  0  0  0  0  0  0  0  0  0  0  0
   -4.3922    0.9822  -18.6620 N   0  0  0  0  0  0  0  0  0  0  0  0
   -2.6541    2.3576  -18.8677 H   0  0  0  0  0  0  0  0  0  0  0  0
  2  1  1  0  0  0
  2  3  1  0  0  0
  3  4  1  0  0  0
  4 19  1  0  0  0
 19 20  2  0  0  0
 20 21  1  0  0  0
 21 22  2  0  0  0
 22 23  1  0  0  0
 23 24  2  0  0  0
 24 25  1  0  0  0
 25 26  2  0  0  0
 26 27  1  0  0  0
 27 28  2  0  0  0
  4  5  1  0  0  0
  5  6  2  0  0  0
  5  7  1  0  0  0
  7  8  1  0  0  0
  8  9  1  0  0  0
  9 29  1  0  0  0
 29 30  1  0  0  0
 30 31  1  0  0  0
 31 32  2  0  0  0
 32 33  1  0  0  0
 33 34  1  0  0  0
  9 10  1  0  0  0
 10 11  2  0  0  0
 10 12  1  0  0  0
 12 13  2  0  0  0
 13 14  1  0  0  0
 14 15  2  0  0  0
 15 16  1  0  0  0
 15 17  1  0  0  0
 17 18  2  0  0  0
  7  2  1  0  0  0
 34 30  2  0  0  0
 18 12  1  0  0  0
 28 19  1  0  0  0
 18  7  1  0  0  0
 28 23  1  0  0  0
 33 35  1  0  0  0
M  END
> <minimizedAffinity>
-9.38543

> <CNNscore>
0.2072197795

> <CNNaffinity>
6.0334649086

> <CNN_VS>
1.2502533197

> <CNNaffinity_variance>
0.1881460994

$$$$



 35 40  0  0  0  0  0  0  0  0999 V2000
  -10.9614   -2.3215  -24.3226 C   0  0  0  0  0  0  0  0  0  0  0  0
  -10.5400   -0.9706  -23.8249 C   0  0  0  0  0  0  0  0  0  0  0  0
  -11.6574    0.0277  -23.8951 C   0  0  0  0  0  0  0  0  0  0  0  0
  -11.1412    1.3382  -23.3793 N   0  0  0  0  0  0  0  0  0  0  0  0
   -9.7048    1.1498  -22.9904 C   0  0  0  0  0  0  0  0  0  0  0  0
   -8.7990    2.2035  -22.4252 O   0  0  0  0  0  0  0  0  0  0  0  0
   -9.3333   -0.2771  -23.2657 C   0  0  0  0  0  0  0  0  0  0  0  0
   -8.2149    0.5459  -22.6984 C   0  0  0  0  0  0  0  0  0  0  0  0
   -6.8723   -0.0779  -22.4570 N   0  0  0  0  0  0  0  0  0  0  0  0
   -6.6481   -1.5248  -22.7829 C   0  0  0  0  0  0  0  0  0  0  0  0
   -5.3055   -2.1487  -22.5415 O   0  0  0  0  0  0  0  0  0  0  0  0
   -7.7665   -2.3479  -23.3503 C   0  0  0  0  0  0  0  0  0  0  0  0
   -7.5422   -3.7947  -23.6763 C   0  0  0  0  0  0  0  0  0  0  0  0
   -8.6606   -4.6177  -24.2436 C   0  0  0  0  0  0  0  0  0  0  0  0
  -10.0031   -3.9939  -24.4850 C   0  0  0  0  0  0  0  0  0  0  0  0
  -11.1215   -4.8169  -25.0524 F   0  0  0  0  0  0  0  0  0  0  0  0
  -10.2274   -2.5470  -24.1591 C   0  0  0  0  0  0  0  0  0  0  0  0
   -9.1090   -1.7240  -23.5917 C   0  0  0  0  0  0  0  0  0  0  0  0
  -11.9239    2.6132  -23.2714 C   0  0  0  0  0  0  0  0  0  0  0  0
  -13.0029    2.7457  -22.2380 C   0  0  0  0  0  0  0  0  0  0  0  0
  -13.7856    4.0208  -22.1301 N   0  0  0  0  0  0  0  0  0  0  0  0
  -13.4893    5.1633  -23.0557 C   0  0  0  0  0  0  0  0  0  0  0  0
  -12.4102    5.0308  -24.0892 C   0  0  0  0  0  0  0  0  0  0  0  0
  -12.1139    6.1734  -25.0149 C   0  0  0  0  0  0  0  0  0  0  0  0
  -11.0348    6.0408  -26.0484 C   0  0  0  0  0  0  0  0  0  0  0  0
  -10.2522    4.7658  -26.1562 C   0  0  0  0  0  0  0  0  0  0  0  0
  -10.5485    3.6232  -25.2306 C   0  0  0  0  0  0  0  0  0  0  0  0
  -11.6275    3.7557  -24.1971 C   0  0  0  0  0  0  0  0  0  0  0  0
   -5.7539    0.7451  -21.8896 C   0  0  0  0  0  0  0  0  0  0  0  0
   -5.3933    0.6218  -20.4388 C   0  0  0  0  0  0  0  0  0  0  0  0
   -6.0365   -0.3000  -19.4457 N   0  0  0  0  0  0  0  0  0  0  0  0
   -5.3668   -0.0929  -18.1196 C   0  0  0  0  0  0  0  0  0  0  0  0
   -4.3096    0.9571  -18.2931 N   0  0  0  0  0  0  0  0  0  0  0  0
   -4.3260    1.3988  -19.7265 N   0  0  0  0  0  0  0  0  0  0  0  0
   -3.7103    1.2967  -17.5898 H   0  0  0  0  0  0  0  0  0  0  0  0
  2  1  1  0  0  0
  2  3  1  0  0  0
  3  4  1  0  0  0
  4 19  1  0  0  0
 19 20  2  0  0  0
 20 21  1  0  0  0
 21 22  2  0  0  0
 22 23  1  0  0  0
 23 24  2  0  0  0
 24 25  1  0  0  0
 25 26  2  0  0  0
 26 27  1  0  0  0
 27 28  2  0  0  0
  4  5  1  0  0  0
  5  6  2  0  0  0
  5  7  1  0  0  0
  7  8  1  0  0  0
  8  9  1  0  0  0
  9 29  1  0  0  0
 29 30  1  0  0  0
 30 31  1  0  0  0
 31 32  2  0  0  0
 32 33  1  0  0  0
 33 34  1  0  0  0
  9 10  1  0  0  0
 10 11  2  0  0  0
 10 12  1  0  0  0
 12 13  2  0  0  0
 13 14  1  0  0  0
 14 15  2  0  0  0
 15 16  1  0  0  0
 15 17  1  0  0  0
 17 18  2  0  0  0
  7  2  1  0  0  0
 34 30  2  0  0  0
 18 12  1  0  0  0
 28 19  1  0  0  0
 18  7  1  0  0  0
 28 23  1  0  0  0
 33 35  1  0  0  0
M  END
> <minimizedAffinity>
-8.51894

> <CNNscore>
0.1992129385

> <CNNaffinity>
6.0899720192

> <CNN_VS>
1.2132011652

> <CNNaffinity_variance>
0.1923502386

$$$$
