


 35 40  0  0  0  0  0  0  0  0999 V2000
    7.5668   -3.3275   23.4981 C   0  0  0  0  0  0  0  0  0  0  0  0
    7.7520   -2.0520   22.7307 C   0  0  0  0  0  0  0  0  0  0  0  0
    6.6294   -1.8087   21.7660 C   0  0  0  0  0  0  0  0  0  0  0  0
    6.9038   -0.5187   21.0515 N   0  0  0  0  0  0  0  0  0  0  0  0
    8.1959    0.0353   21.5746 C   0  0  0  0  0  0  0  0  0  0  0  0
    8.8490    1.3127   21.1367 O   0  0  0  0  0  0  0  0  0  0  0  0
    8.7201   -0.9124   22.6125 C   0  0  0  0  0  0  0  0  0  0  0  0
    9.5924    0.2865   22.3848 C   0  0  0  0  0  0  0  0  0  0  0  0
   10.8618    0.4498   23.1670 N   0  0  0  0  0  0  0  0  0  0  0  0
   11.2590   -0.5857   24.1769 C   0  0  0  0  0  0  0  0  0  0  0  0
   12.5284   -0.4224   24.9591 O   0  0  0  0  0  0  0  0  0  0  0  0
   10.3867   -1.7846   24.4046 C   0  0  0  0  0  0  0  0  0  0  0  0
   10.7838   -2.8201   25.4145 C   0  0  0  0  0  0  0  0  0  0  0  0
    9.9115   -4.0190   25.6422 C   0  0  0  0  0  0  0  0  0  0  0  0
    8.6421   -4.1823   24.8600 C   0  0  0  0  0  0  0  0  0  0  0  0
    7.7698   -5.3812   25.0877 F   0  0  0  0  0  0  0  0  0  0  0  0
    8.2449   -3.1468   23.8501 C   0  0  0  0  0  0  0  0  0  0  0  0
    9.1172   -1.9479   23.6224 C   0  0  0  0  0  0  0  0  0  0  0  0
    6.0380    0.1075   19.9986 C   0  0  0  0  0  0  0  0  0  0  0  0
    6.4184   -0.0026   18.5519 C   0  0  0  0  0  0  0  0  0  0  0  0
    5.5526    0.6236   17.4991 N   0  0  0  0  0  0  0  0  0  0  0  0
    4.3066    1.3598   17.8931 C   0  0  0  0  0  0  0  0  0  0  0  0
    3.9262    1.4699   19.3399 C   0  0  0  0  0  0  0  0  0  0  0  0
    2.6801    2.2062   19.7339 C   0  0  0  0  0  0  0  0  0  0  0  0
    2.2998    2.3162   21.1807 C   0  0  0  0  0  0  0  0  0  0  0  0
    3.1656    1.6900   22.2335 C   0  0  0  0  0  0  0  0  0  0  0  0
    4.4116    0.9538   21.8395 C   0  0  0  0  0  0  0  0  0  0  0  0
    4.7920    0.8437   20.3927 C   0  0  0  0  0  0  0  0  0  0  0  0
   11.7341    1.6487   22.9393 C   0  0  0  0  0  0  0  0  0  0  0  0
   11.1430    3.0264   22.9878 C   0  0  0  0  0  0  0  0  0  0  0  0
   11.9074    4.3160   22.9375 N   0  0  0  0  0  0  0  0  0  0  0  0
   10.9205    5.4431   23.0138 C   0  0  0  0  0  0  0  0  0  0  0  0
    9.5461    4.8500   23.1112 N   0  0  0  0  0  0  0  0  0  0  0  0
    9.6837    3.3564   23.0951 N   0  0  0  0  0  0  0  0  0  0  0  0
    8.7020    5.3527   23.1746 H   0  0  0  0  0  0  0  0  0  0  0  0
  2  1  1  0  0  0
  2  3  1  0  0  0
  3  4  1  0  0  0
  4 19  1  0  0  0
 19 20  2  0  0  0
 20 21  1  0  0  0
 21 22  2  0  0  0
 22 23  1  0  0  0
 23 24  2  0  0  0
 24 25  1  0  0  0
 25 26  2  0  0  0
 26 27  1  0  0  0
 27 28  2  0  0  0
  4  5  1  0  0  0
  5  6  2  0  0  0
  5  7  1  0  0  0
  7  8  1  0  0  0
  8  9  1  0  0  0
  9 29  1  0  0  0
 29 30  1  0  0  0
 30 31  1  0  0  0
 31 32  2  0  0  0
 32 33  1  0  0  0
 33 34  1  0  0  0
  9 10  1  0  0  0
 10 11  2  0  0  0
 10 12  1  0  0  0
 12 13  2  0  0  0
 13 14  1  0  0  0
 14 15  2  0  0  0
 15 16  1  0  0  0
 15 17  1  0  0  0
 17 18  2  0  0  0
  7  2  1  0  0  0
 34 30  2  0  0  0
 18 12  1  0  0  0
 28 19  1  0  0  0
 18  7  1  0  0  0
 28 23  1  0  0  0
 33 35  1  0  0  0
M  END
> <minimizedAffinity>
-10.05092

> <CNNscore>
0.7105637193

> <CNNaffinity>
6.9167571068

> <CNN_VS>
4.9147968292

> <CNNaffinity_variance>
0.0564094782

$$$$



 35 40  0  0  0  0  0  0  0  0999 V2000
    4.7697   -1.7814   25.3910 C   0  0  0  0  0  0  0  0  0  0  0  0
    5.7161   -1.5096   24.2594 C   0  0  0  0  0  0  0  0  0  0  0  0
    5.0155   -0.9241   23.0693 C   0  0  0  0  0  0  0  0  0  0  0  0
    6.0390   -0.6893   21.9981 N   0  0  0  0  0  0  0  0  0  0  0  0
    7.3721   -1.1297   22.5263 C   0  0  0  0  0  0  0  0  0  0  0  0
    8.6759   -1.0731   21.7866 O   0  0  0  0  0  0  0  0  0  0  0  0
    7.1726   -1.6367   23.9238 C   0  0  0  0  0  0  0  0  0  0  0  0
    8.5935   -1.7031   23.4478 C   0  0  0  0  0  0  0  0  0  0  0  0
    9.6626   -2.2425   24.3512 N   0  0  0  0  0  0  0  0  0  0  0  0
    9.3108   -2.7155   25.7305 C   0  0  0  0  0  0  0  0  0  0  0  0
   10.3800   -3.2549   26.6338 O   0  0  0  0  0  0  0  0  0  0  0  0
    7.8899   -2.6491   26.2065 C   0  0  0  0  0  0  0  0  0  0  0  0
    7.5381   -3.1221   27.5858 C   0  0  0  0  0  0  0  0  0  0  0  0
    6.1172   -3.0558   28.0618 C   0  0  0  0  0  0  0  0  0  0  0  0
    5.0481   -2.5164   27.1584 C   0  0  0  0  0  0  0  0  0  0  0  0
    3.6271   -2.4500   27.6345 F   0  0  0  0  0  0  0  0  0  0  0  0
    5.3998   -2.0434   25.7791 C   0  0  0  0  0  0  0  0  0  0  0  0
    6.8207   -2.1097   25.3032 C   0  0  0  0  0  0  0  0  0  0  0  0
    5.7757   -0.1149   20.6377 C   0  0  0  0  0  0  0  0  0  0  0  0
    6.6986   -0.4315   19.4985 C   0  0  0  0  0  0  0  0  0  0  0  0
    6.4352    0.1429   18.1381 N   0  0  0  0  0  0  0  0  0  0  0  0
    5.2489    1.0338   17.9170 C   0  0  0  0  0  0  0  0  0  0  0  0
    4.3260    1.3503   19.0562 C   0  0  0  0  0  0  0  0  0  0  0  0
    3.1396    2.2413   18.8351 C   0  0  0  0  0  0  0  0  0  0  0  0
    2.2167    2.5578   19.9744 C   0  0  0  0  0  0  0  0  0  0  0  0
    2.4801    1.9834   21.3347 C   0  0  0  0  0  0  0  0  0  0  0  0
    3.6664    1.0925   21.5559 C   0  0  0  0  0  0  0  0  0  0  0  0
    4.5893    0.7760   20.4167 C   0  0  0  0  0  0  0  0  0  0  0  0
   11.0836   -2.3089   23.8751 C   0  0  0  0  0  0  0  0  0  0  0  0
   12.2077   -2.3157   24.8682 C   0  0  0  0  0  0  0  0  0  0  0  0
   12.7112   -3.5109   25.6217 N   0  0  0  0  0  0  0  0  0  0  0  0
   13.8404   -3.0624   26.5014 C   0  0  0  0  0  0  0  0  0  0  0  0
   14.0347   -1.5899   26.2915 N   0  0  0  0  0  0  0  0  0  0  0  0
   13.0256   -1.1284   25.2822 N   0  0  0  0  0  0  0  0  0  0  0  0
   14.7066   -1.0255   26.7379 H   0  0  0  0  0  0  0  0  0  0  0  0
  2  1  1  0  0  0
  2  3  1  0  0  0
  3  4  1  0  0  0
  4 19  1  0  0  0
 19 20  2  0  0  0
 20 21  1  0  0  0
 21 22  2  0  0  0
 22 23  1  0  0  0
 23 24  2  0  0  0
 24 25  1  0  0  0
 25 26  2  0  0  0
 26 27  1  0  0  0
 27 28  2  0  0  0
  4  5  1  0  0  0
  5  6  2  0  0  0
  5  7  1  0  0  0
  7  8  1  0  0  0
  8  9  1  0  0  0
  9 29  1  0  0  0
 29 30  1  0  0  0
 30 31  1  0  0  0
 31 32  2  0  0  0
 32 33  1  0  0  0
 33 34  1  0  0  0
  9 10  1  0  0  0
 10 11  2  0  0  0
 10 12  1  0  0  0
 12 13  2  0  0  0
 13 14  1  0  0  0
 14 15  2  0  0  0
 15 16  1  0  0  0
 15 17  1  0  0  0
 17 18  2  0  0  0
  7  2  1  0  0  0
 34 30  2  0  0  0
 18 12  1  0  0  0
 28 19  1  0  0  0
 18  7  1  0  0  0
 28 23  1  0  0  0
 33 35  1  0  0  0
M  END
> <minimizedAffinity>
-8.47764

> <CNNscore>
0.4604035616

> <CNNaffinity>
6.4523696899

> <CNN_VS>
2.9706940651

> <CNNaffinity_variance>
0.0522597805

$$$$



 35 40  0  0  0  0  0  0  0  0999 V2000
    5.5389   -2.7719   24.7717 C   0  0  0  0  0  0  0  0  0  0  0  0
    6.2729   -2.0485   23.6818 C   0  0  0  0  0  0  0  0  0  0  0  0
    5.3584   -1.6350   22.5670 C   0  0  0  0  0  0  0  0  0  0  0  0
    6.1800   -0.9241   21.5329 N   0  0  0  0  0  0  0  0  0  0  0  0
    7.6024   -0.8982   22.0085 C   0  0  0  0  0  0  0  0  0  0  0  0
    8.7635   -0.2850   21.2833 O   0  0  0  0  0  0  0  0  0  0  0  0
    7.6598   -1.5931   23.3366 C   0  0  0  0  0  0  0  0  0  0  0  0
    8.9857   -1.0793   22.8591 C   0  0  0  0  0  0  0  0  0  0  0  0
   10.2143   -1.2831   23.6952 N   0  0  0  0  0  0  0  0  0  0  0  0
   10.1170   -2.0006   25.0088 C   0  0  0  0  0  0  0  0  0  0  0  0
   11.3456   -2.2043   25.8449 O   0  0  0  0  0  0  0  0  0  0  0  0
    8.7911   -2.5144   25.4864 C   0  0  0  0  0  0  0  0  0  0  0  0
    8.6938   -3.2320   26.8000 C   0  0  0  0  0  0  0  0  0  0  0  0
    7.3680   -3.7458   27.2775 C   0  0  0  0  0  0  0  0  0  0  0  0
    6.1394   -3.5420   26.4414 C   0  0  0  0  0  0  0  0  0  0  0  0
    4.8135   -4.0559   26.9190 F   0  0  0  0  0  0  0  0  0  0  0  0
    6.2366   -2.8245   25.1278 C   0  0  0  0  0  0  0  0  0  0  0  0
    7.5625   -2.3107   24.6503 C   0  0  0  0  0  0  0  0  0  0  0  0
    5.6691   -0.3414   20.2486 C   0  0  0  0  0  0  0  0  0  0  0  0
    6.0827   -0.9395   18.9367 C   0  0  0  0  0  0  0  0  0  0  0  0
    5.5717   -0.3567   17.6525 N   0  0  0  0  0  0  0  0  0  0  0  0
    4.6472    0.8241   17.6802 C   0  0  0  0  0  0  0  0  0  0  0  0
    4.2336    1.4222   18.9921 C   0  0  0  0  0  0  0  0  0  0  0  0
    3.3089    2.6031   19.0198 C   0  0  0  0  0  0  0  0  0  0  0  0
    2.8954    3.2012   20.3318 C   0  0  0  0  0  0  0  0  0  0  0  0
    3.4064    2.6184   21.6160 C   0  0  0  0  0  0  0  0  0  0  0  0
    4.3309    1.4376   21.5883 C   0  0  0  0  0  0  0  0  0  0  0  0
    4.7445    0.8395   20.2764 C   0  0  0  0  0  0  0  0  0  0  0  0
   11.5402   -0.7692   23.2176 C   0  0  0  0  0  0  0  0  0  0  0  0
   11.7740    0.7078   23.1003 C   0  0  0  0  0  0  0  0  0  0  0  0
   10.7862    1.7860   23.4340 N   0  0  0  0  0  0  0  0  0  0  0  0
   11.4384    3.1105   23.1686 C   0  0  0  0  0  0  0  0  0  0  0  0
   12.8294    2.8508   22.6708 N   0  0  0  0  0  0  0  0  0  0  0  0
   13.0368    1.3658   22.6286 N   0  0  0  0  0  0  0  0  0  0  0  0
   13.4902    3.5348   22.4165 H   0  0  0  0  0  0  0  0  0  0  0  0
  2  1  1  0  0  0
  2  3  1  0  0  0
  3  4  1  0  0  0
  4 19  1  0  0  0
 19 20  2  0  0  0
 20 21  1  0  0  0
 21 22  2  0  0  0
 22 23  1  0  0  0
 23 24  2  0  0  0
 24 25  1  0  0  0
 25 26  2  0  0  0
 26 27  1  0  0  0
 27 28  2  0  0  0
  4  5  1  0  0  0
  5  6  2  0  0  0
  5  7  1  0  0  0
  7  8  1  0  0  0
  8  9  1  0  0  0
  9 29  1  0  0  0
 29 30  1  0  0  0
 30 31  1  0  0  0
 31 32  2  0  0  0
 32 33  1  0  0  0
 33 34  1  0  0  0
  9 10  1  0  0  0
 10 11  2  0  0  0
 10 12  1  0  0  0
 12 13  2  0  0  0
 13 14  1  0  0  0
 14 15  2  0  0  0
 15 16  1  0  0  0
 15 17  1  0  0  0
 17 18  2  0  0  0
  7  2  1  0  0  0
 34 30  2  0  0  0
 18 12  1  0  0  0
 28 19  1  0  0  0
 18  7  1  0  0  0
 28 23  1  0  0  0
 33 35  1  0  0  0
M  END
> <minimizedAffinity>
-8.17607

> <CNNscore>
0.4186979234

> <CNNaffinity>
6.5681242943

> <CNN_VS>
2.7500600815

> <CNNaffinity_variance>
0.0779180899

$$$$



 35 40  0  0  0  0  0  0  0  0999 V2000
   10.9699   -3.4198   26.1167 C   0  0  0  0  0  0  0  0  0  0  0  0
    9.6400   -3.0993   25.5011 C   0  0  0  0  0  0  0  0  0  0  0  0
    8.5552   -4.0049   26.0039 C   0  0  0  0  0  0  0  0  0  0  0  0
    7.2728   -3.6080   25.3347 N   0  0  0  0  0  0  0  0  0  0  0  0
    7.5651   -2.4570   24.4183 C   0  0  0  0  0  0  0  0  0  0  0  0
    6.5692   -1.7454   23.5512 O   0  0  0  0  0  0  0  0  0  0  0  0
    9.0282   -2.1426   24.5211 C   0  0  0  0  0  0  0  0  0  0  0  0
    8.2796   -1.2582   23.5685 C   0  0  0  0  0  0  0  0  0  0  0  0
    9.0037   -0.1770   22.8223 N   0  0  0  0  0  0  0  0  0  0  0  0
   10.4763    0.0199   23.0288 C   0  0  0  0  0  0  0  0  0  0  0  0
   11.2003    1.1011   22.2827 O   0  0  0  0  0  0  0  0  0  0  0  0
   11.2249   -0.8645   23.9815 C   0  0  0  0  0  0  0  0  0  0  0  0
   12.6975   -0.6677   24.1880 C   0  0  0  0  0  0  0  0  0  0  0  0
   13.4460   -1.5520   25.1406 C   0  0  0  0  0  0  0  0  0  0  0  0
   12.7220   -2.6332   25.8867 C   0  0  0  0  0  0  0  0  0  0  0  0
   13.4706   -3.5176   26.8394 F   0  0  0  0  0  0  0  0  0  0  0  0
   11.2494   -2.8301   25.6802 C   0  0  0  0  0  0  0  0  0  0  0  0
   10.5008   -1.9458   24.7276 C   0  0  0  0  0  0  0  0  0  0  0  0
    5.9332   -4.2494   25.5449 C   0  0  0  0  0  0  0  0  0  0  0  0
    5.2720   -4.9907   24.4211 C   0  0  0  0  0  0  0  0  0  0  0  0
    3.9325   -5.6321   24.6314 N   0  0  0  0  0  0  0  0  0  0  0  0
    3.2542   -5.5321   25.9655 C   0  0  0  0  0  0  0  0  0  0  0  0
    3.9154   -4.7907   27.0893 C   0  0  0  0  0  0  0  0  0  0  0  0
    3.2371   -4.6906   28.4235 C   0  0  0  0  0  0  0  0  0  0  0  0
    3.8984   -3.9492   29.5473 C   0  0  0  0  0  0  0  0  0  0  0  0
    5.2379   -3.3079   29.3370 C   0  0  0  0  0  0  0  0  0  0  0  0
    5.9162   -3.4079   28.0029 C   0  0  0  0  0  0  0  0  0  0  0  0
    5.2550   -4.1493   26.8791 C   0  0  0  0  0  0  0  0  0  0  0  0
    8.2550    0.7074   21.8697 C   0  0  0  0  0  0  0  0  0  0  0  0
    7.9079    2.1119   22.2654 C   0  0  0  0  0  0  0  0  0  0  0  0
    8.4742    2.8645   23.4329 N   0  0  0  0  0  0  0  0  0  0  0  0
    7.8497    4.2282   23.4522 C   0  0  0  0  0  0  0  0  0  0  0  0
    6.8974    4.3185   22.2967 N   0  0  0  0  0  0  0  0  0  0  0  0
    6.9334    3.0105   21.5633 N   0  0  0  0  0  0  0  0  0  0  0  0
    6.3457    5.0991   22.0612 H   0  0  0  0  0  0  0  0  0  0  0  0
  2  1  1  0  0  0
  2  3  1  0  0  0
  3  4  1  0  0  0
  4 19  1  0  0  0
 19 20  2  0  0  0
 20 21  1  0  0  0
 21 22  2  0  0  0
 22 23  1  0  0  0
 23 24  2  0  0  0
 24 25  1  0  0  0
 25 26  2  0  0  0
 26 27  1  0  0  0
 27 28  2  0  0  0
  4  5  1  0  0  0
  5  6  2  0  0  0
  5  7  1  0  0  0
  7  8  1  0  0  0
  8  9  1  0  0  0
  9 29  1  0  0  0
 29 30  1  0  0  0
 30 31  1  0  0  0
 31 32  2  0  0  0
 32 33  1  0  0  0
 33 34  1  0  0  0
  9 10  1  0  0  0
 10 11  2  0  0  0
 10 12  1  0  0  0
 12 13  2  0  0  0
 13 14  1  0  0  0
 14 15  2  0  0  0
 15 16  1  0  0  0
 15 17  1  0  0  0
 17 18  2  0  0  0
  7  2  1  0  0  0
 34 30  2  0  0  0
 18 12  1  0  0  0
 28 19  1  0  0  0
 18  7  1  0  0  0
 28 23  1  0  0  0
 33 35  1  0  0  0
M  END
> <minimizedAffinity>
-7.99313

> <CNNscore>
0.3546380699

> <CNNaffinity>
6.6429963112

> <CNN_VS>
2.3558592796

> <CNNaffinity_variance>
0.1792165935

$$$$



 35 40  0  0  0  0  0  0  0  0999 V2000
    9.1484   -0.9282   23.7145 C   0  0  0  0  0  0  0  0  0  0  0  0
    7.9924   -1.3274   22.8459 C   0  0  0  0  0  0  0  0  0  0  0  0
    7.5969   -0.2333   21.8990 C   0  0  0  0  0  0  0  0  0  0  0  0
    6.4409   -0.7250   21.0794 N   0  0  0  0  0  0  0  0  0  0  0  0
    6.1219   -2.1229   21.5197 C   0  0  0  0  0  0  0  0  0  0  0  0
    5.0349   -2.9954   20.9654 O   0  0  0  0  0  0  0  0  0  0  0  0
    7.0808   -2.4953   22.6115 C   0  0  0  0  0  0  0  0  0  0  0  0
    6.0997   -3.5762   22.2663 C   0  0  0  0  0  0  0  0  0  0  0  0
    6.1399   -4.8863   22.9955 N   0  0  0  0  0  0  0  0  0  0  0  0
    7.1611   -5.1156   24.0700 C   0  0  0  0  0  0  0  0  0  0  0  0
    7.2012   -6.4258   24.7993 O   0  0  0  0  0  0  0  0  0  0  0  0
    8.1422   -4.0347   24.4153 C   0  0  0  0  0  0  0  0  0  0  0  0
    9.1634   -4.2640   25.4898 C   0  0  0  0  0  0  0  0  0  0  0  0
   10.1444   -3.1831   25.8350 C   0  0  0  0  0  0  0  0  0  0  0  0
   10.1042   -1.8729   25.1057 C   0  0  0  0  0  0  0  0  0  0  0  0
   11.0853   -0.7920   25.4510 F   0  0  0  0  0  0  0  0  0  0  0  0
    9.0830   -1.6436   24.0312 C   0  0  0  0  0  0  0  0  0  0  0  0
    8.1020   -2.7245   23.6860 C   0  0  0  0  0  0  0  0  0  0  0  0
    5.7289    0.0460   20.0076 C   0  0  0  0  0  0  0  0  0  0  0  0
    6.2159   -0.0156   18.5902 C   0  0  0  0  0  0  0  0  0  0  0  0
    5.5039    0.7553   17.5184 N   0  0  0  0  0  0  0  0  0  0  0  0
    4.3049    1.5878   17.8641 C   0  0  0  0  0  0  0  0  0  0  0  0
    3.8180    1.6493   19.2815 C   0  0  0  0  0  0  0  0  0  0  0  0
    2.6189    2.4818   19.6271 C   0  0  0  0  0  0  0  0  0  0  0  0
    2.1320    2.5433   21.0446 C   0  0  0  0  0  0  0  0  0  0  0  0
    2.8440    1.7724   22.1163 C   0  0  0  0  0  0  0  0  0  0  0  0
    4.0430    0.9399   21.7706 C   0  0  0  0  0  0  0  0  0  0  0  0
    4.5300    0.8784   20.3533 C   0  0  0  0  0  0  0  0  0  0  0  0
    5.1588   -5.9673   22.6503 C   0  0  0  0  0  0  0  0  0  0  0  0
    3.8899   -6.1079   23.4378 C   0  0  0  0  0  0  0  0  0  0  0  0
    2.6187   -6.7415   22.9556 N   0  0  0  0  0  0  0  0  0  0  0  0
    1.6126   -6.6649   24.0655 C   0  0  0  0  0  0  0  0  0  0  0  0
    2.2621   -5.9840   25.2337 N   0  0  0  0  0  0  0  0  0  0  0  0
    3.6695   -5.6398   24.8457 N   0  0  0  0  0  0  0  0  0  0  0  0
    1.8389   -5.7960   26.1025 H   0  0  0  0  0  0  0  0  0  0  0  0
  2  1  1  0  0  0
  2  3  1  0  0  0
  3  4  1  0  0  0
  4 19  1  0  0  0
 19 20  2  0  0  0
 20 21  1  0  0  0
 21 22  2  0  0  0
 22 23  1  0  0  0
 23 24  2  0  0  0
 24 25  1  0  0  0
 25 26  2  0  0  0
 26 27  1  0  0  0
 27 28  2  0  0  0
  4  5  1  0  0  0
  5  6  2  0  0  0
  5  7  1  0  0  0
  7  8  1  0  0  0
  8  9  1  0  0  0
  9 29  1  0  0  0
 29 30  1  0  0  0
 30 31  1  0  0  0
 31 32  2  0  0  0
 32 33  1  0  0  0
 33 34  1  0  0  0
  9 10  1  0  0  0
 10 11  2  0  0  0
 10 12  1  0  0  0
 12 13  2  0  0  0
 13 14  1  0  0  0
 14 15  2  0  0  0
 15 16  1  0  0  0
 15 17  1  0  0  0
 17 18  2  0  0  0
  7  2  1  0  0  0
 34 30  2  0  0  0
 18 12  1  0  0  0
 28 19  1  0  0  0
 18  7  1  0  0  0
 28 23  1  0  0  0
 33 35  1  0  0  0
M  END
> <minimizedAffinity>
-8.26268

> <CNNscore>
0.3455255628

> <CNNaffinity>
6.3653564453

> <CNN_VS>
2.1993932724

> <CNNaffinity_variance>
0.0353539474

$$$$



 35 40  0  0  0  0  0  0  0  0999 V2000
    5.3117   -4.5215   22.4524 C   0  0  0  0  0  0  0  0  0  0  0  0
    5.9126   -3.2047   22.0586 C   0  0  0  0  0  0  0  0  0  0  0  0
    5.0769   -2.4880   21.0398 C   0  0  0  0  0  0  0  0  0  0  0  0
    5.7561   -1.1913   20.7124 N   0  0  0  0  0  0  0  0  0  0  0  0
    7.0116   -1.1066   21.5289 C   0  0  0  0  0  0  0  0  0  0  0  0
    7.9972    0.0240   21.5158 O   0  0  0  0  0  0  0  0  0  0  0  0
    7.1083   -2.3509   22.3609 C   0  0  0  0  0  0  0  0  0  0  0  0
    8.2462   -1.3941   22.5599 C   0  0  0  0  0  0  0  0  0  0  0  0
    9.3456   -1.7264   23.5247 N   0  0  0  0  0  0  0  0  0  0  0  0
    9.3071   -3.0155   24.2906 C   0  0  0  0  0  0  0  0  0  0  0  0
   10.4064   -3.3477   25.2555 O   0  0  0  0  0  0  0  0  0  0  0  0
    8.1691   -3.9724   24.0917 C   0  0  0  0  0  0  0  0  0  0  0  0
    8.1306   -5.2615   24.8576 C   0  0  0  0  0  0  0  0  0  0  0  0
    6.9927   -6.2183   24.6587 C   0  0  0  0  0  0  0  0  0  0  0  0
    5.8934   -5.8861   23.6938 C   0  0  0  0  0  0  0  0  0  0  0  0
    4.7554   -6.8430   23.4949 F   0  0  0  0  0  0  0  0  0  0  0  0
    5.9319   -4.5970   22.9279 C   0  0  0  0  0  0  0  0  0  0  0  0
    7.0697   -3.6401   23.1268 C   0  0  0  0  0  0  0  0  0  0  0  0
    5.2659   -0.1602   19.7394 C   0  0  0  0  0  0  0  0  0  0  0  0
    5.6909   -0.2232   18.3024 C   0  0  0  0  0  0  0  0  0  0  0  0
    5.2008    0.8078   17.3294 N   0  0  0  0  0  0  0  0  0  0  0  0
    4.2856    1.9018   17.7936 C   0  0  0  0  0  0  0  0  0  0  0  0
    3.8606    1.9648   19.2307 C   0  0  0  0  0  0  0  0  0  0  0  0
    2.9453    3.0589   19.6949 C   0  0  0  0  0  0  0  0  0  0  0  0
    2.5203    3.1219   21.1321 C   0  0  0  0  0  0  0  0  0  0  0  0
    3.0105    2.0908   22.1050 C   0  0  0  0  0  0  0  0  0  0  0  0
    3.9257    0.9968   21.6408 C   0  0  0  0  0  0  0  0  0  0  0  0
    4.3507    0.9338   20.2037 C   0  0  0  0  0  0  0  0  0  0  0  0
   10.4835   -0.7694   23.7236 C   0  0  0  0  0  0  0  0  0  0  0  0
   11.7792   -1.2549   24.3027 C   0  0  0  0  0  0  0  0  0  0  0  0
   12.2404   -1.0613   25.7168 N   0  0  0  0  0  0  0  0  0  0  0  0
   13.5875   -1.7060   25.8574 C   0  0  0  0  0  0  0  0  0  0  0  0
   13.9588   -2.2981   24.5302 N   0  0  0  0  0  0  0  0  0  0  0  0
   12.8412   -2.0193   23.5693 N   0  0  0  0  0  0  0  0  0  0  0  0
   14.7901   -2.7843   24.3256 H   0  0  0  0  0  0  0  0  0  0  0  0
  2  1  1  0  0  0
  2  3  1  0  0  0
  3  4  1  0  0  0
  4 19  1  0  0  0
 19 20  2  0  0  0
 20 21  1  0  0  0
 21 22  2  0  0  0
 22 23  1  0  0  0
 23 24  2  0  0  0
 24 25  1  0  0  0
 25 26  2  0  0  0
 26 27  1  0  0  0
 27 28  2  0  0  0
  4  5  1  0  0  0
  5  6  2  0  0  0
  5  7  1  0  0  0
  7  8  1  0  0  0
  8  9  1  0  0  0
  9 29  1  0  0  0
 29 30  1  0  0  0
 30 31  1  0  0  0
 31 32  2  0  0  0
 32 33  1  0  0  0
 33 34  1  0  0  0
  9 10  1  0  0  0
 10 11  2  0  0  0
 10 12  1  0  0  0
 12 13  2  0  0  0
 13 14  1  0  0  0
 14 15  2  0  0  0
 15 16  1  0  0  0
 15 17  1  0  0  0
 17 18  2  0  0  0
  7  2  1  0  0  0
 34 30  2  0  0  0
 18 12  1  0  0  0
 28 19  1  0  0  0
 18  7  1  0  0  0
 28 23  1  0  0  0
 33 35  1  0  0  0
M  END
> <minimizedAffinity>
-8.17663

> <CNNscore>
0.3447079360

> <CNNaffinity>
6.4581003189

> <CNN_VS>
2.2261583805

> <CNNaffinity_variance>
0.0617098622

$$$$



 35 40  0  0  0  0  0  0  0  0999 V2000
   10.7670   -3.7412   25.6287 C   0  0  0  0  0  0  0  0  0  0  0  0
    9.5634   -3.4297   24.7893 C   0  0  0  0  0  0  0  0  0  0  0  0
    8.4955   -4.4739   24.9290 C   0  0  0  0  0  0  0  0  0  0  0  0
    7.3414   -4.0758   24.0575 N   0  0  0  0  0  0  0  0  0  0  0  0
    7.6960   -2.7858   23.3793 C   0  0  0  0  0  0  0  0  0  0  0  0
    6.8293   -2.0280   22.4176 O   0  0  0  0  0  0  0  0  0  0  0  0
    9.0693   -2.3864   23.8316 C   0  0  0  0  0  0  0  0  0  0  0  0
    8.4437   -1.4282   22.8619 C   0  0  0  0  0  0  0  0  0  0  0  0
    9.1915   -0.2011   22.4319 N   0  0  0  0  0  0  0  0  0  0  0  0
   10.5649    0.0678   22.9716 C   0  0  0  0  0  0  0  0  0  0  0  0
   11.3127    1.2950   22.5416 O   0  0  0  0  0  0  0  0  0  0  0  0
   11.1906   -0.8904   23.9414 C   0  0  0  0  0  0  0  0  0  0  0  0
   12.5640   -0.6216   24.4811 C   0  0  0  0  0  0  0  0  0  0  0  0
   13.1896   -1.5798   25.4508 C   0  0  0  0  0  0  0  0  0  0  0  0
   12.4418   -2.8069   25.8807 C   0  0  0  0  0  0  0  0  0  0  0  0
   13.0675   -3.7652   26.8505 F   0  0  0  0  0  0  0  0  0  0  0  0
   11.0684   -3.0758   25.3410 C   0  0  0  0  0  0  0  0  0  0  0  0
   10.4428   -2.1176   24.3713 C   0  0  0  0  0  0  0  0  0  0  0  0
    6.0579   -4.8346   23.8931 C   0  0  0  0  0  0  0  0  0  0  0  0
    5.7602   -5.5334   22.5998 C   0  0  0  0  0  0  0  0  0  0  0  0
    4.4768   -6.2922   22.4354 N   0  0  0  0  0  0  0  0  0  0  0  0
    3.4911   -6.3522   23.5644 C   0  0  0  0  0  0  0  0  0  0  0  0
    3.7889   -5.6534   24.8579 C   0  0  0  0  0  0  0  0  0  0  0  0
    2.8031   -5.7134   25.9870 C   0  0  0  0  0  0  0  0  0  0  0  0
    3.1009   -5.0145   27.2804 C   0  0  0  0  0  0  0  0  0  0  0  0
    4.3843   -4.2558   27.4447 C   0  0  0  0  0  0  0  0  0  0  0  0
    5.3700   -4.1958   26.3157 C   0  0  0  0  0  0  0  0  0  0  0  0
    5.0723   -4.8946   25.0223 C   0  0  0  0  0  0  0  0  0  0  0  0
    8.5658    0.7572   21.4622 C   0  0  0  0  0  0  0  0  0  0  0  0
    8.0058    2.0601   21.9508 C   0  0  0  0  0  0  0  0  0  0  0  0
    8.3628    2.7466   23.2358 N   0  0  0  0  0  0  0  0  0  0  0  0
    7.5682    4.0161   23.3195 C   0  0  0  0  0  0  0  0  0  0  0  0
    6.7200    4.1141   22.0862 N   0  0  0  0  0  0  0  0  0  0  0  0
    6.9905    2.9053   21.2403 N   0  0  0  0  0  0  0  0  0  0  0  0
    6.0954    4.8438   21.8699 H   0  0  0  0  0  0  0  0  0  0  0  0
  2  1  1  0  0  0
  2  3  1  0  0  0
  3  4  1  0  0  0
  4 19  1  0  0  0
 19 20  2  0  0  0
 20 21  1  0  0  0
 21 22  2  0  0  0
 22 23  1  0  0  0
 23 24  2  0  0  0
 24 25  1  0  0  0
 25 26  2  0  0  0
 26 27  1  0  0  0
 27 28  2  0  0  0
  4  5  1  0  0  0
  5  6  2  0  0  0
  5  7  1  0  0  0
  7  8  1  0  0  0
  8  9  1  0  0  0
  9 29  1  0  0  0
 29 30  1  0  0  0
 30 31  1  0  0  0
 31 32  2  0  0  0
 32 33  1  0  0  0
 33 34  1  0  0  0
  9 10  1  0  0  0
 10 11  2  0  0  0
 10 12  1  0  0  0
 12 13  2  0  0  0
 13 14  1  0  0  0
 14 15  2  0  0  0
 15 16  1  0  0  0
 15 17  1  0  0  0
 17 18  2  0  0  0
  7  2  1  0  0  0
 34 30  2  0  0  0
 18 12  1  0  0  0
 28 19  1  0  0  0
 18  7  1  0  0  0
 28 23  1  0  0  0
 33 35  1  0  0  0
M  END
> <minimizedAffinity>
-8.67129

> <CNNscore>
0.2828175724

> <CNNaffinity>
6.4931249619

> <CNN_VS>
1.8363698721

> <CNNaffinity_variance>
0.1229649410

$$$$



 35 40  0  0  0  0  0  0  0  0999 V2000
    5.8067   -1.2848   26.7147 C   0  0  0  0  0  0  0  0  0  0  0  0
    6.5242   -0.6419   25.5649 C   0  0  0  0  0  0  0  0  0  0  0  0
    8.0019   -0.8949   25.6126 C   0  0  0  0  0  0  0  0  0  0  0  0
    8.6268   -0.2165   24.4297 N   0  0  0  0  0  0  0  0  0  0  0  0
    7.5351    0.4558   23.6509 C   0  0  0  0  0  0  0  0  0  0  0  0
    7.7120    1.2513   22.3916 O   0  0  0  0  0  0  0  0  0  0  0  0
    6.2357    0.1928   24.3525 C   0  0  0  0  0  0  0  0  0  0  0  0
    6.1014    1.0236   23.1108 C   0  0  0  0  0  0  0  0  0  0  0  0
    4.7506    1.5100   22.6763 N   0  0  0  0  0  0  0  0  0  0  0  0
    3.5341    1.1656   23.4835 C   0  0  0  0  0  0  0  0  0  0  0  0
    2.1833    1.6520   23.0490 O   0  0  0  0  0  0  0  0  0  0  0  0
    3.6684    0.3349   24.7252 C   0  0  0  0  0  0  0  0  0  0  0  0
    2.4519   -0.0094   25.5324 C   0  0  0  0  0  0  0  0  0  0  0  0
    2.5862   -0.8401   26.7741 C   0  0  0  0  0  0  0  0  0  0  0  0
    3.9370   -1.3265   27.2086 C   0  0  0  0  0  0  0  0  0  0  0  0
    4.0712   -2.1573   28.4504 F   0  0  0  0  0  0  0  0  0  0  0  0
    5.1535   -0.9822   26.4014 C   0  0  0  0  0  0  0  0  0  0  0  0
    5.0192   -0.1515   25.1598 C   0  0  0  0  0  0  0  0  0  0  0  0
   10.0868   -0.2112   24.0859 C   0  0  0  0  0  0  0  0  0  0  0  0
   10.6063    0.7239   23.0345 C   0  0  0  0  0  0  0  0  0  0  0  0
   12.0664    0.7292   22.6907 N   0  0  0  0  0  0  0  0  0  0  0  0
   13.0069   -0.2007   23.3983 C   0  0  0  0  0  0  0  0  0  0  0  0
   12.4873   -1.1359   24.4497 C   0  0  0  0  0  0  0  0  0  0  0  0
   13.4278   -2.0658   25.1574 C   0  0  0  0  0  0  0  0  0  0  0  0
   12.9082   -3.0010   26.2088 C   0  0  0  0  0  0  0  0  0  0  0  0
   11.4482   -3.0062   26.5525 C   0  0  0  0  0  0  0  0  0  0  0  0
   10.5077   -2.0763   25.8449 C   0  0  0  0  0  0  0  0  0  0  0  0
   11.0272   -1.1412   24.7936 C   0  0  0  0  0  0  0  0  0  0  0  0
    4.6163    2.3407   21.4345 C   0  0  0  0  0  0  0  0  0  0  0  0
    4.7347    1.6968   20.0850 C   0  0  0  0  0  0  0  0  0  0  0  0
    5.8533    0.8085   19.6270 N   0  0  0  0  0  0  0  0  0  0  0  0
    5.5653    0.3909   18.2154 C   0  0  0  0  0  0  0  0  0  0  0  0
    4.2686    1.0211   17.8009 N   0  0  0  0  0  0  0  0  0  0  0  0
    3.7554    1.8282   18.9564 N   0  0  0  0  0  0  0  0  0  0  0  0
    3.8313    0.9223   16.9244 H   0  0  0  0  0  0  0  0  0  0  0  0
  2  1  1  0  0  0
  2  3  1  0  0  0
  3  4  1  0  0  0
  4 19  1  0  0  0
 19 20  2  0  0  0
 20 21  1  0  0  0
 21 22  2  0  0  0
 22 23  1  0  0  0
 23 24  2  0  0  0
 24 25  1  0  0  0
 25 26  2  0  0  0
 26 27  1  0  0  0
 27 28  2  0  0  0
  4  5  1  0  0  0
  5  6  2  0  0  0
  5  7  1  0  0  0
  7  8  1  0  0  0
  8  9  1  0  0  0
  9 29  1  0  0  0
 29 30  1  0  0  0
 30 31  1  0  0  0
 31 32  2  0  0  0
 32 33  1  0  0  0
 33 34  1  0  0  0
  9 10  1  0  0  0
 10 11  2  0  0  0
 10 12  1  0  0  0
 12 13  2  0  0  0
 13 14  1  0  0  0
 14 15  2  0  0  0
 15 16  1  0  0  0
 15 17  1  0  0  0
 17 18  2  0  0  0
  7  2  1  0  0  0
 34 30  2  0  0  0
 18 12  1  0  0  0
 28 19  1  0  0  0
 18  7  1  0  0  0
 28 23  1  0  0  0
 33 35  1  0  0  0
M  END
> <minimizedAffinity>
-8.13267

> <CNNscore>
0.2605831325

> <CNNaffinity>
6.1901059151

> <CNN_VS>
1.6130372286

> <CNNaffinity_variance>
0.0534540787

$$$$



 35 40  0  0  0  0  0  0  0  0999 V2000
    9.3153    3.0847   22.6089 C   0  0  0  0  0  0  0  0  0  0  0  0
    8.2840    2.0396   22.9159 C   0  0  0  0  0  0  0  0  0  0  0  0
    6.8882    2.5770   22.8018 C   0  0  0  0  0  0  0  0  0  0  0  0
    5.9353    1.4646   23.1253 N   0  0  0  0  0  0  0  0  0  0  0  0
    6.7423    0.2397   23.4393 C   0  0  0  0  0  0  0  0  0  0  0  0
    6.1939   -1.1045   23.8165 O   0  0  0  0  0  0  0  0  0  0  0  0
    8.1938    0.5951   23.3099 C   0  0  0  0  0  0  0  0  0  0  0  0
    7.9476   -0.8315   23.7025 C   0  0  0  0  0  0  0  0  0  0  0  0
    9.1057   -1.7579   23.9276 N   0  0  0  0  0  0  0  0  0  0  0  0
   10.5098   -1.2578   23.7600 C   0  0  0  0  0  0  0  0  0  0  0  0
   11.6679   -2.1843   23.9850 O   0  0  0  0  0  0  0  0  0  0  0  0
   10.7561    0.1688   23.3673 C   0  0  0  0  0  0  0  0  0  0  0  0
   12.1602    0.6689   23.1997 C   0  0  0  0  0  0  0  0  0  0  0  0
   12.4064    2.0955   22.8070 C   0  0  0  0  0  0  0  0  0  0  0  0
   11.2484    3.0220   22.5820 C   0  0  0  0  0  0  0  0  0  0  0  0
   11.4946    4.4486   22.1893 F   0  0  0  0  0  0  0  0  0  0  0  0
    9.8442    2.5219   22.7496 C   0  0  0  0  0  0  0  0  0  0  0  0
    9.5980    1.0953   23.1422 C   0  0  0  0  0  0  0  0  0  0  0  0
    4.4384    1.5602   23.1333 C   0  0  0  0  0  0  0  0  0  0  0  0
    3.6820    1.3758   24.4154 C   0  0  0  0  0  0  0  0  0  0  0  0
    2.1851    1.4715   24.4234 N   0  0  0  0  0  0  0  0  0  0  0  0
    1.4446    1.7515   23.1494 C   0  0  0  0  0  0  0  0  0  0  0  0
    2.2011    1.9360   21.8673 C   0  0  0  0  0  0  0  0  0  0  0  0
    1.4605    2.2160   20.5932 C   0  0  0  0  0  0  0  0  0  0  0  0
    2.2171    2.4004   19.3111 C   0  0  0  0  0  0  0  0  0  0  0  0
    3.7139    2.3048   19.3031 C   0  0  0  0  0  0  0  0  0  0  0  0
    4.4544    2.0247   20.5772 C   0  0  0  0  0  0  0  0  0  0  0  0
    3.6980    1.8403   21.8592 C   0  0  0  0  0  0  0  0  0  0  0  0
    8.8595   -3.1846   24.3203 C   0  0  0  0  0  0  0  0  0  0  0  0
    9.5184   -3.7503   25.5432 C   0  0  0  0  0  0  0  0  0  0  0  0
    9.3000   -3.2914   26.9545 N   0  0  0  0  0  0  0  0  0  0  0  0
   10.1581   -4.1317   27.8532 C   0  0  0  0  0  0  0  0  0  0  0  0
   10.9069   -5.1099   26.9973 N   0  0  0  0  0  0  0  0  0  0  0  0
   10.5115   -4.8742   25.5697 N   0  0  0  0  0  0  0  0  0  0  0  0
   11.5456   -5.7877   27.3165 H   0  0  0  0  0  0  0  0  0  0  0  0
  2  1  1  0  0  0
  2  3  1  0  0  0
  3  4  1  0  0  0
  4 19  1  0  0  0
 19 20  2  0  0  0
 20 21  1  0  0  0
 21 22  2  0  0  0
 22 23  1  0  0  0
 23 24  2  0  0  0
 24 25  1  0  0  0
 25 26  2  0  0  0
 26 27  1  0  0  0
 27 28  2  0  0  0
  4  5  1  0  0  0
  5  6  2  0  0  0
  5  7  1  0  0  0
  7  8  1  0  0  0
  8  9  1  0  0  0
  9 29  1  0  0  0
 29 30  1  0  0  0
 30 31  1  0  0  0
 31 32  2  0  0  0
 32 33  1  0  0  0
 33 34  1  0  0  0
  9 10  1  0  0  0
 10 11  2  0  0  0
 10 12  1  0  0  0
 12 13  2  0  0  0
 13 14  1  0  0  0
 14 15  2  0  0  0
 15 16  1  0  0  0
 15 17  1  0  0  0
 17 18  2  0  0  0
  7  2  1  0  0  0
 34 30  2  0  0  0
 18 12  1  0  0  0
 28 19  1  0  0  0
 18  7  1  0  0  0
 28 23  1  0  0  0
 33 35  1  0  0  0
M  END
> <minimizedAffinity>
-8.31513

> <CNNscore>
0.2605404556

> <CNNaffinity>
6.3139672279

> <CNN_VS>
1.6450438499

> <CNNaffinity_variance>
0.1823983192

$$$$
