


 37 41  0  0  0  0  0  0  0  0999 V2000
   -7.1209   -0.9522  -23.5815 N   0  0  0  0  0  0  0  0  0  0  0  0
   -7.5764    0.4686  -23.7365 C   0  0  0  0  0  0  0  0  0  0  0  0
   -9.0379    0.7993  -23.6680 C   0  0  0  0  0  0  0  0  0  0  0  0
  -10.4581    1.2797  -23.6227 C   0  0  0  0  0  0  0  0  0  0  0  0
  -11.5835    0.8453  -23.4777 O   0  0  0  0  0  0  0  0  0  0  0  0
  -10.4512    2.7664  -23.8223 N   0  0  0  0  0  0  0  0  0  0  0  0
   -9.0266    3.2048  -23.9909 C   0  0  0  0  0  0  0  0  0  0  0  0
   -8.1532    1.9890  -23.8956 C   0  0  0  0  0  0  0  0  0  0  0  0
   -6.6576    1.9670  -24.0081 N   0  0  0  0  0  0  0  0  0  0  0  0
  -10.0439   -0.2907  -23.4444 C   0  0  0  0  0  0  0  0  0  0  0  0
  -11.5053    0.0400  -23.3759 C   0  0  0  0  0  0  0  0  0  0  0  0
  -12.5112   -1.0500  -23.1523 C   0  0  0  0  0  0  0  0  0  0  0  0
  -13.9727   -0.7193  -23.0837 Cl  0  0  0  0  0  0  0  0  0  0  0  0
  -12.0557   -2.4707  -22.9972 C   0  0  0  0  0  0  0  0  0  0  0  0
  -10.5942   -2.8014  -23.0658 C   0  0  0  0  0  0  0  0  0  0  0  0
   -9.5883   -1.7115  -23.2894 C   0  0  0  0  0  0  0  0  0  0  0  0
   -8.1268   -2.0421  -23.3579 C   0  0  0  0  0  0  0  0  0  0  0  0
   -7.6712   -3.4629  -23.2029 O   0  0  0  0  0  0  0  0  0  0  0  0
   -6.1531    1.0840  -23.9288 H   0  0  0  0  0  0  0  0  0  0  0  0
   -6.1450    2.8349  -24.1639 H   0  0  0  0  0  0  0  0  0  0  0  0
   -5.6405    1.9519  -24.0846 H   0  0  0  0  0  0  0  0  0  0  0  0
  -11.6571    3.6581  -23.8486 C   0  0  0  0  0  0  0  0  0  0  0  0
  -12.5003    3.8157  -22.6181 C   0  0  0  0  0  0  0  0  0  0  0  0
  -13.7062    4.7074  -22.6444 N   0  0  0  0  0  0  0  0  0  0  0  0
  -14.0689    5.4414  -23.9012 C   0  0  0  0  0  0  0  0  0  0  0  0
  -13.2256    5.2838  -25.1317 C   0  0  0  0  0  0  0  0  0  0  0  0
  -13.5883    6.0180  -26.3885 C   0  0  0  0  0  0  0  0  0  0  0  0
  -12.7450    5.8603  -27.6190 C   0  0  0  0  0  0  0  0  0  0  0  0
  -11.5391    4.9686  -27.5927 C   0  0  0  0  0  0  0  0  0  0  0  0
  -11.1765    4.2345  -26.3359 C   0  0  0  0  0  0  0  0  0  0  0  0
  -12.0197    4.3921  -25.1054 C   0  0  0  0  0  0  0  0  0  0  0  0
   -5.6593   -1.2829  -23.6500 C   0  0  0  0  0  0  0  0  0  0  0  0
   -4.5486   -3.8541  -26.4616 C   0  0  0  0  0  0  0  0  0  0  0  0
   -5.1347   -3.3048  -25.1948 N   0  0  0  0  0  0  0  0  0  0  0  0
   -5.0733   -1.8321  -24.9169 C   0  0  0  0  0  0  0  0  0  0  0  0
   -4.4258   -0.9086  -25.9058 O   0  0  0  0  0  0  0  0  0  0  0  0
   -5.5596   -3.9109  -24.5457 H   0  0  0  0  0  0  0  0  0  0  0  0
 33 34  1  0  0  0
 34 35  1  0  0  0
 35 36  2  0  0  0
 35 32  1  0  0  0
 32  1  1  0  0  0
  1  2  1  0  0  0
  3  2  1  0  0  0
  3  4  1  0  0  0
  4  5  2  0  0  0
  4  6  1  0  0  0
  6 22  1  0  0  0
 22 23  2  0  0  0
 23 24  1  0  0  0
 24 25  2  0  0  0
 25 26  1  0  0  0
 26 27  2  0  0  0
 27 28  1  0  0  0
 28 29  2  0  0  0
 29 30  1  0  0  0
 30 31  2  0  0  0
  6  7  1  0  0  0
  7  8  1  0  0  0
  8  9  1  0  0  0
  3 10  1  0  0  0
 10 11  2  0  0  0
 11 12  1  0  0  0
 12 13  1  0  0  0
 12 14  2  0  0  0
 14 15  1  0  0  0
 15 16  2  0  0  0
 16 17  1  0  0  0
 17 18  2  0  0  0
 17  1  1  0  0  0
  8  3  1  0  0  0
 16 10  1  0  0  0
 31 22  1  0  0  0
 31 26  1  0  0  0
 34 37  1  0  0  0
  9 19  1  0  0  0
  9 20  1  0  0  0
  9 21  1  0  0  0
M  CHG 1   9   1
M  END
> <minimizedAffinity>
-7.22891

> <CNNscore>
0.8467576504

> <CNNaffinity>
6.4512152672

> <CNN_VS>
5.4626159668

> <CNNaffinity_variance>
0.1191524267

$$$$



 37 41  0  0  0  0  0  0  0  0999 V2000
   -9.4219    2.7521  -24.5142 N   0  0  0  0  0  0  0  0  0  0  0  0
   -8.4827    1.5888  -24.6357 C   0  0  0  0  0  0  0  0  0  0  0  0
   -8.9602    0.2030  -24.3172 C   0  0  0  0  0  0  0  0  0  0  0  0
   -9.2928   -1.2320  -24.0344 C   0  0  0  0  0  0  0  0  0  0  0  0
  -10.2295   -1.9167  -23.6737 O   0  0  0  0  0  0  0  0  0  0  0  0
   -8.0617   -2.0514  -24.2852 N   0  0  0  0  0  0  0  0  0  0  0  0
   -6.9681   -1.1228  -24.7231 C   0  0  0  0  0  0  0  0  0  0  0  0
   -7.5234    0.2705  -24.7429 C   0  0  0  0  0  0  0  0  0  0  0  0
   -6.7736    1.5131  -25.1218 N   0  0  0  0  0  0  0  0  0  0  0  0
  -10.3769   -0.0196  -23.8772 C   0  0  0  0  0  0  0  0  0  0  0  0
  -10.8543   -1.4054  -23.5587 C   0  0  0  0  0  0  0  0  0  0  0  0
  -12.2709   -1.6280  -23.1188 C   0  0  0  0  0  0  0  0  0  0  0  0
  -12.7485   -3.0139  -22.8003 Cl  0  0  0  0  0  0  0  0  0  0  0  0
  -13.2101   -0.4647  -22.9973 C   0  0  0  0  0  0  0  0  0  0  0  0
  -12.7326    0.9211  -23.3157 C   0  0  0  0  0  0  0  0  0  0  0  0
  -11.3160    1.1437  -23.7557 C   0  0  0  0  0  0  0  0  0  0  0  0
  -10.8385    2.5296  -24.0742 C   0  0  0  0  0  0  0  0  0  0  0  0
  -11.7776    3.6929  -23.9527 O   0  0  0  0  0  0  0  0  0  0  0  0
   -7.2436    2.4182  -25.1029 H   0  0  0  0  0  0  0  0  0  0  0  0
   -5.7936    1.4531  -25.3984 H   0  0  0  0  0  0  0  0  0  0  0  0
   -6.2636    2.3581  -25.3795 H   0  0  0  0  0  0  0  0  0  0  0  0
   -7.9447   -3.5384  -24.1262 C   0  0  0  0  0  0  0  0  0  0  0  0
   -7.3467   -4.1143  -22.8769 C   0  0  0  0  0  0  0  0  0  0  0  0
   -7.2297   -5.6012  -22.7178 N   0  0  0  0  0  0  0  0  0  0  0  0
   -7.7108   -6.5122  -23.8080 C   0  0  0  0  0  0  0  0  0  0  0  0
   -8.3088   -5.9363  -25.0573 C   0  0  0  0  0  0  0  0  0  0  0  0
   -8.7899   -6.8475  -26.1475 C   0  0  0  0  0  0  0  0  0  0  0  0
   -9.3880   -6.2715  -27.3968 C   0  0  0  0  0  0  0  0  0  0  0  0
   -9.5049   -4.7845  -27.5558 C   0  0  0  0  0  0  0  0  0  0  0  0
   -9.0239   -3.8735  -26.4656 C   0  0  0  0  0  0  0  0  0  0  0  0
   -8.4258   -4.4494  -25.2164 C   0  0  0  0  0  0  0  0  0  0  0  0
   -8.9443    4.1380  -24.8327 C   0  0  0  0  0  0  0  0  0  0  0  0
   -6.9694    5.9974  -21.9357 C   0  0  0  0  0  0  0  0  0  0  0  0
   -8.0943    5.3925  -22.7223 N   0  0  0  0  0  0  0  0  0  0  0  0
   -7.8194    4.7429  -24.0461 C   0  0  0  0  0  0  0  0  0  0  0  0
   -6.4196    4.6982  -24.5833 O   0  0  0  0  0  0  0  0  0  0  0  0
   -9.0130    5.4218  -22.3697 H   0  0  0  0  0  0  0  0  0  0  0  0
 33 34  1  0  0  0
 34 35  1  0  0  0
 35 36  2  0  0  0
 35 32  1  0  0  0
 32  1  1  0  0  0
  1  2  1  0  0  0
  3  2  1  0  0  0
  3  4  1  0  0  0
  4  5  2  0  0  0
  4  6  1  0  0  0
  6 22  1  0  0  0
 22 23  2  0  0  0
 23 24  1  0  0  0
 24 25  2  0  0  0
 25 26  1  0  0  0
 26 27  2  0  0  0
 27 28  1  0  0  0
 28 29  2  0  0  0
 29 30  1  0  0  0
 30 31  2  0  0  0
  6  7  1  0  0  0
  7  8  1  0  0  0
  8  9  1  0  0  0
  3 10  1  0  0  0
 10 11  2  0  0  0
 11 12  1  0  0  0
 12 13  1  0  0  0
 12 14  2  0  0  0
 14 15  1  0  0  0
 15 16  2  0  0  0
 16 17  1  0  0  0
 17 18  2  0  0  0
 17  1  1  0  0  0
  8  3  1  0  0  0
 16 10  1  0  0  0
 31 22  1  0  0  0
 31 26  1  0  0  0
 34 37  1  0  0  0
  9 19  1  0  0  0
  9 20  1  0  0  0
  9 21  1  0  0  0
M  CHG 1   9   1
M  END
> <minimizedAffinity>
-7.47747

> <CNNscore>
0.4833763540

> <CNNaffinity>
6.2111687660

> <CNN_VS>
3.0023322105

> <CNNaffinity_variance>
0.1506990045

$$$$



 37 41  0  0  0  0  0  0  0  0999 V2000
  -11.5516    3.9064  -24.0531 N   0  0  0  0  0  0  0  0  0  0  0  0
  -10.1698    3.3344  -23.9370 C   0  0  0  0  0  0  0  0  0  0  0  0
   -9.9843    1.8701  -23.6699 C   0  0  0  0  0  0  0  0  0  0  0  0
   -9.6441    0.4331  -23.4064 C   0  0  0  0  0  0  0  0  0  0  0  0
  -10.1937   -0.6340  -23.2179 O   0  0  0  0  0  0  0  0  0  0  0  0
   -8.1497    0.3095  -23.3706 N   0  0  0  0  0  0  0  0  0  0  0  0
   -7.5661    1.6701  -23.6120 C   0  0  0  0  0  0  0  0  0  0  0  0
   -8.7000    2.6346  -23.7970 C   0  0  0  0  0  0  0  0  0  0  0  0
   -8.5719    4.1053  -24.0624 N   0  0  0  0  0  0  0  0  0  0  0  0
  -11.1805    0.9777  -23.5189 C   0  0  0  0  0  0  0  0  0  0  0  0
  -10.9950   -0.4865  -23.2518 C   0  0  0  0  0  0  0  0  0  0  0  0
  -12.1912   -1.3788  -23.1008 C   0  0  0  0  0  0  0  0  0  0  0  0
  -12.0057   -2.8432  -22.8337 Cl  0  0  0  0  0  0  0  0  0  0  0  0
  -13.5730   -0.8068  -23.2169 C   0  0  0  0  0  0  0  0  0  0  0  0
  -13.7585    0.6575  -23.4840 C   0  0  0  0  0  0  0  0  0  0  0  0
  -12.5623    1.5498  -23.6350 C   0  0  0  0  0  0  0  0  0  0  0  0
  -12.7478    3.0142  -23.9021 C   0  0  0  0  0  0  0  0  0  0  0  0
  -14.1296    3.5862  -24.0182 O   0  0  0  0  0  0  0  0  0  0  0  0
   -9.4085    4.6782  -24.1738 H   0  0  0  0  0  0  0  0  0  0  0  0
   -7.6483    4.5326  -24.1316 H   0  0  0  0  0  0  0  0  0  0  0  0
   -8.4849    5.1055  -24.2429 H   0  0  0  0  0  0  0  0  0  0  0  0
   -7.3748   -0.9530  -23.1348 C   0  0  0  0  0  0  0  0  0  0  0  0
   -7.1405   -1.9113  -24.2647 C   0  0  0  0  0  0  0  0  0  0  0  0
   -6.3656   -3.1739  -24.0289 N   0  0  0  0  0  0  0  0  0  0  0  0
   -5.8251   -3.4781  -22.6632 C   0  0  0  0  0  0  0  0  0  0  0  0
   -6.0594   -2.5197  -21.5332 C   0  0  0  0  0  0  0  0  0  0  0  0
   -5.5189   -2.8240  -20.1674 C   0  0  0  0  0  0  0  0  0  0  0  0
   -5.7533   -1.8656  -19.0376 C   0  0  0  0  0  0  0  0  0  0  0  0
   -6.5281   -0.6031  -19.2734 C   0  0  0  0  0  0  0  0  0  0  0  0
   -7.0686   -0.2989  -20.6391 C   0  0  0  0  0  0  0  0  0  0  0  0
   -6.8343   -1.2572  -21.7690 C   0  0  0  0  0  0  0  0  0  0  0  0
  -11.7371    5.3708  -24.3202 C   0  0  0  0  0  0  0  0  0  0  0  0
  -13.9899    6.4119  -27.4171 C   0  0  0  0  0  0  0  0  0  0  0  0
  -13.5895    5.9439  -26.0494 N   0  0  0  0  0  0  0  0  0  0  0  0
  -12.1375    5.8388  -25.6879 C   0  0  0  0  0  0  0  0  0  0  0  0
  -11.0859    6.2019  -26.6941 O   0  0  0  0  0  0  0  0  0  0  0  0
  -14.2796    5.7056  -25.3890 H   0  0  0  0  0  0  0  0  0  0  0  0
 33 34  1  0  0  0
 34 35  1  0  0  0
 35 36  2  0  0  0
 35 32  1  0  0  0
 32  1  1  0  0  0
  1  2  1  0  0  0
  3  2  1  0  0  0
  3  4  1  0  0  0
  4  5  2  0  0  0
  4  6  1  0  0  0
  6 22  1  0  0  0
 22 23  2  0  0  0
 23 24  1  0  0  0
 24 25  2  0  0  0
 25 26  1  0  0  0
 26 27  2  0  0  0
 27 28  1  0  0  0
 28 29  2  0  0  0
 29 30  1  0  0  0
 30 31  2  0  0  0
  6  7  1  0  0  0
  7  8  1  0  0  0
  8  9  1  0  0  0
  3 10  1  0  0  0
 10 11  2  0  0  0
 11 12  1  0  0  0
 12 13  1  0  0  0
 12 14  2  0  0  0
 14 15  1  0  0  0
 15 16  2  0  0  0
 16 17  1  0  0  0
 17 18  2  0  0  0
 17  1  1  0  0  0
  8  3  1  0  0  0
 16 10  1  0  0  0
 31 22  1  0  0  0
 31 26  1  0  0  0
 34 37  1  0  0  0
  9 19  1  0  0  0
  9 20  1  0  0  0
  9 21  1  0  0  0
M  CHG 1   9   1
M  END
> <minimizedAffinity>
-8.18987

> <CNNscore>
0.3323185444

> <CNNaffinity>
6.0524988174

> <CNN_VS>
2.0113575459

> <CNNaffinity_variance>
0.1000650376

$$$$



 37 41  0  0  0  0  0  0  0  0999 V2000
   -7.6704   -3.7642  -26.1264 N   0  0  0  0  0  0  0  0  0  0  0  0
   -7.1652   -3.8382  -24.7160 C   0  0  0  0  0  0  0  0  0  0  0  0
   -6.9598   -2.5798  -23.9259 C   0  0  0  0  0  0  0  0  0  0  0  0
   -6.7070   -1.4132  -23.0176 C   0  0  0  0  0  0  0  0  0  0  0  0
   -6.7796   -0.2003  -23.0181 O   0  0  0  0  0  0  0  0  0  0  0  0
   -6.2096   -1.9457  -21.7065 N   0  0  0  0  0  0  0  0  0  0  0  0
   -6.1551   -3.4415  -21.8045 C   0  0  0  0  0  0  0  0  0  0  0  0
   -6.6187   -3.8334  -23.1762 C   0  0  0  0  0  0  0  0  0  0  0  0
   -6.7229   -5.2331  -23.7052 N   0  0  0  0  0  0  0  0  0  0  0  0
   -7.2596   -1.2474  -24.5463 C   0  0  0  0  0  0  0  0  0  0  0  0
   -7.0543    0.0110  -23.7562 C   0  0  0  0  0  0  0  0  0  0  0  0
   -7.3541    1.3434  -24.3766 C   0  0  0  0  0  0  0  0  0  0  0  0
   -7.1488    2.6018  -23.5865 Cl  0  0  0  0  0  0  0  0  0  0  0  0
   -7.8593    1.4173  -25.7870 C   0  0  0  0  0  0  0  0  0  0  0  0
   -8.0647    0.1589  -26.5771 C   0  0  0  0  0  0  0  0  0  0  0  0
   -7.7649   -1.1734  -25.9567 C   0  0  0  0  0  0  0  0  0  0  0  0
   -7.9702   -2.4319  -26.7468 C   0  0  0  0  0  0  0  0  0  0  0  0
   -8.4754   -2.3579  -28.1572 O   0  0  0  0  0  0  0  0  0  0  0  0
   -7.0513   -5.3954  -24.6571 H   0  0  0  0  0  0  0  0  0  0  0  0
   -6.4655   -6.0227  -23.1129 H   0  0  0  0  0  0  0  0  0  0  0  0
   -6.7938   -6.1850  -24.0649 H   0  0  0  0  0  0  0  0  0  0  0  0
   -5.8330   -1.1263  -20.5079 C   0  0  0  0  0  0  0  0  0  0  0  0
   -6.6082   -1.2646  -19.2312 C   0  0  0  0  0  0  0  0  0  0  0  0
   -6.2315   -0.4452  -18.0325 N   0  0  0  0  0  0  0  0  0  0  0  0
   -5.0797    0.5125  -18.1106 C   0  0  0  0  0  0  0  0  0  0  0  0
   -4.3045    0.6507  -19.3873 C   0  0  0  0  0  0  0  0  0  0  0  0
   -3.1525    1.6084  -19.4654 C   0  0  0  0  0  0  0  0  0  0  0  0
   -2.3774    1.7466  -20.7421 C   0  0  0  0  0  0  0  0  0  0  0  0
   -2.7541    0.9272  -21.9408 C   0  0  0  0  0  0  0  0  0  0  0  0
   -3.9059   -0.0304  -21.8627 C   0  0  0  0  0  0  0  0  0  0  0  0
   -4.6811   -0.1687  -20.5860 C   0  0  0  0  0  0  0  0  0  0  0  0
   -7.8757   -5.0227  -26.9165 C   0  0  0  0  0  0  0  0  0  0  0  0
   -5.2927   -7.6425  -28.4046 C   0  0  0  0  0  0  0  0  0  0  0  0
   -6.4246   -7.0636  -27.6086 N   0  0  0  0  0  0  0  0  0  0  0  0
   -6.7438   -5.6017  -27.7125 C   0  0  0  0  0  0  0  0  0  0  0  0
   -5.9310   -4.7186  -28.6123 O   0  0  0  0  0  0  0  0  0  0  0  0
   -6.9581   -7.6432  -27.0181 H   0  0  0  0  0  0  0  0  0  0  0  0
 33 34  1  0  0  0
 34 35  1  0  0  0
 35 36  2  0  0  0
 35 32  1  0  0  0
 32  1  1  0  0  0
  1  2  1  0  0  0
  3  2  1  0  0  0
  3  4  1  0  0  0
  4  5  2  0  0  0
  4  6  1  0  0  0
  6 22  1  0  0  0
 22 23  2  0  0  0
 23 24  1  0  0  0
 24 25  2  0  0  0
 25 26  1  0  0  0
 26 27  2  0  0  0
 27 28  1  0  0  0
 28 29  2  0  0  0
 29 30  1  0  0  0
 30 31  2  0  0  0
  6  7  1  0  0  0
  7  8  1  0  0  0
  8  9  1  0  0  0
  3 10  1  0  0  0
 10 11  2  0  0  0
 11 12  1  0  0  0
 12 13  1  0  0  0
 12 14  2  0  0  0
 14 15  1  0  0  0
 15 16  2  0  0  0
 16 17  1  0  0  0
 17 18  2  0  0  0
 17  1  1  0  0  0
  8  3  1  0  0  0
 16 10  1  0  0  0
 31 22  1  0  0  0
 31 26  1  0  0  0
 34 37  1  0  0  0
  9 19  1  0  0  0
  9 20  1  0  0  0
  9 21  1  0  0  0
M  CHG 1   9   1
M  END
> <minimizedAffinity>
-7.84498

> <CNNscore>
0.2898324728

> <CNNaffinity>
5.9455013275

> <CNN_VS>
1.7231993675

> <CNNaffinity_variance>
0.3287660778

$$$$



 37 41  0  0  0  0  0  0  0  0999 V2000
   -5.2504   -6.2441  -23.5581 N   0  0  0  0  0  0  0  0  0  0  0  0
   -5.8021   -4.9711  -22.9879 C   0  0  0  0  0  0  0  0  0  0  0  0
   -6.8451   -4.2014  -23.7425 C   0  0  0  0  0  0  0  0  0  0  0  0
   -7.8861   -3.3286  -24.3786 C   0  0  0  0  0  0  0  0  0  0  0  0
   -8.5708   -3.2762  -25.3810 O   0  0  0  0  0  0  0  0  0  0  0  0
   -8.1371   -2.1655  -23.4653 N   0  0  0  0  0  0  0  0  0  0  0  0
   -7.2512   -2.3194  -22.2646 C   0  0  0  0  0  0  0  0  0  0  0  0
   -6.4527   -3.5776  -22.4360 C   0  0  0  0  0  0  0  0  0  0  0  0
   -5.4397   -4.1174  -21.4703 N   0  0  0  0  0  0  0  0  0  0  0  0
   -7.3365   -4.7046  -25.0674 C   0  0  0  0  0  0  0  0  0  0  0  0
   -8.3796   -3.9348  -25.8221 C   0  0  0  0  0  0  0  0  0  0  0  0
   -8.8709   -4.4380  -27.1469 C   0  0  0  0  0  0  0  0  0  0  0  0
   -9.9140   -3.6683  -27.9016 Cl  0  0  0  0  0  0  0  0  0  0  0  0
   -8.3192   -5.7110  -27.7172 C   0  0  0  0  0  0  0  0  0  0  0  0
   -7.2761   -6.4808  -26.9626 C   0  0  0  0  0  0  0  0  0  0  0  0
   -6.7848   -5.9775  -25.6377 C   0  0  0  0  0  0  0  0  0  0  0  0
   -5.7417   -6.7473  -24.8830 C   0  0  0  0  0  0  0  0  0  0  0  0
   -5.1900   -8.0203  -25.4533 O   0  0  0  0  0  0  0  0  0  0  0  0
   -4.9475   -4.9858  -21.6799 H   0  0  0  0  0  0  0  0  0  0  0  0
   -5.2431   -3.6159  -20.6041 H   0  0  0  0  0  0  0  0  0  0  0  0
   -4.7508   -4.4844  -20.8137 H   0  0  0  0  0  0  0  0  0  0  0  0
   -9.1041   -1.0452  -23.7097 C   0  0  0  0  0  0  0  0  0  0  0  0
   -8.6182    0.2538  -24.2810 C   0  0  0  0  0  0  0  0  0  0  0  0
   -9.5853    1.3741  -24.5254 N   0  0  0  0  0  0  0  0  0  0  0  0
  -11.0382    1.1953  -24.1984 C   0  0  0  0  0  0  0  0  0  0  0  0
  -11.5242   -0.1037  -23.6271 C   0  0  0  0  0  0  0  0  0  0  0  0
  -12.9772   -0.2824  -23.3002 C   0  0  0  0  0  0  0  0  0  0  0  0
  -13.4630   -1.5815  -22.7288 C   0  0  0  0  0  0  0  0  0  0  0  0
  -12.4960   -2.7018  -22.4844 C   0  0  0  0  0  0  0  0  0  0  0  0
  -11.0430   -2.5230  -22.8114 C   0  0  0  0  0  0  0  0  0  0  0  0
  -10.5571   -1.2240  -23.3827 C   0  0  0  0  0  0  0  0  0  0  0  0
   -4.2073   -7.0139  -22.8034 C   0  0  0  0  0  0  0  0  0  0  0  0
   -1.0859   -6.6204  -25.2226 C   0  0  0  0  0  0  0  0  0  0  0  0
   -2.4675   -6.4761  -24.6565 N   0  0  0  0  0  0  0  0  0  0  0  0
   -2.8257   -7.1582  -23.3695 C   0  0  0  0  0  0  0  0  0  0  0  0
   -1.8023   -7.9846  -22.6485 O   0  0  0  0  0  0  0  0  0  0  0  0
   -3.1392   -5.9338  -25.1297 H   0  0  0  0  0  0  0  0  0  0  0  0
 33 34  1  0  0  0
 34 35  1  0  0  0
 35 36  2  0  0  0
 35 32  1  0  0  0
 32  1  1  0  0  0
  1  2  1  0  0  0
  3  2  1  0  0  0
  3  4  1  0  0  0
  4  5  2  0  0  0
  4  6  1  0  0  0
  6 22  1  0  0  0
 22 23  2  0  0  0
 23 24  1  0  0  0
 24 25  2  0  0  0
 25 26  1  0  0  0
 26 27  2  0  0  0
 27 28  1  0  0  0
 28 29  2  0  0  0
 29 30  1  0  0  0
 30 31  2  0  0  0
  6  7  1  0  0  0
  7  8  1  0  0  0
  8  9  1  0  0  0
  3 10  1  0  0  0
 10 11  2  0  0  0
 11 12  1  0  0  0
 12 13  1  0  0  0
 12 14  2  0  0  0
 14 15  1  0  0  0
 15 16  2  0  0  0
 16 17  1  0  0  0
 17 18  2  0  0  0
 17  1  1  0  0  0
  8  3  1  0  0  0
 16 10  1  0  0  0
 31 22  1  0  0  0
 31 26  1  0  0  0
 34 37  1  0  0  0
  9 19  1  0  0  0
  9 20  1  0  0  0
  9 21  1  0  0  0
M  CHG 1   9   1
M  END
> <minimizedAffinity>
-7.41504

> <CNNscore>
0.2776018083

> <CNNaffinity>
6.0295906067

> <CNN_VS>
1.6738252640

> <CNNaffinity_variance>
0.1093383804

$$$$



 37 41  0  0  0  0  0  0  0  0999 V2000
   -6.2889   -0.0684  -22.4344 N   0  0  0  0  0  0  0  0  0  0  0  0
   -6.6169    1.1825  -23.1944 C   0  0  0  0  0  0  0  0  0  0  0  0
   -8.0115    1.4105  -23.6975 C   0  0  0  0  0  0  0  0  0  0  0  0
   -9.3539    1.7745  -24.2593 C   0  0  0  0  0  0  0  0  0  0  0  0
  -10.4836    1.3330  -24.3313 O   0  0  0  0  0  0  0  0  0  0  0  0
   -9.2267    3.1061  -24.9381 N   0  0  0  0  0  0  0  0  0  0  0  0
   -7.8058    3.5651  -24.7959 C   0  0  0  0  0  0  0  0  0  0  0  0
   -7.0547    2.5171  -24.0292 C   0  0  0  0  0  0  0  0  0  0  0  0
   -5.6020    2.5671  -23.6591 N   0  0  0  0  0  0  0  0  0  0  0  0
   -9.0781    0.3876  -23.4407 C   0  0  0  0  0  0  0  0  0  0  0  0
  -10.4727    0.6156  -23.9438 C   0  0  0  0  0  0  0  0  0  0  0  0
  -11.5392   -0.4074  -23.6870 C   0  0  0  0  0  0  0  0  0  0  0  0
  -12.9339   -0.1794  -24.1901 Cl  0  0  0  0  0  0  0  0  0  0  0  0
  -11.2112   -1.6583  -22.9270 C   0  0  0  0  0  0  0  0  0  0  0  0
   -9.8167   -1.8863  -22.4239 C   0  0  0  0  0  0  0  0  0  0  0  0
   -8.7501   -0.8634  -22.6807 C   0  0  0  0  0  0  0  0  0  0  0  0
   -7.3555   -1.0914  -22.1776 C   0  0  0  0  0  0  0  0  0  0  0  0
   -7.0275   -2.3423  -21.4176 O   0  0  0  0  0  0  0  0  0  0  0  0
   -5.1829    1.8000  -23.1335 H   0  0  0  0  0  0  0  0  0  0  0  0
   -5.0332    3.3682  -23.9331 H   0  0  0  0  0  0  0  0  0  0  0  0
   -4.6141    2.6011  -23.4075 H   0  0  0  0  0  0  0  0  0  0  0  0
  -10.3273    3.8483  -25.6365 C   0  0  0  0  0  0  0  0  0  0  0  0
  -10.3027    3.9962  -27.1290 C   0  0  0  0  0  0  0  0  0  0  0  0
  -11.4033    4.7385  -27.8274 N   0  0  0  0  0  0  0  0  0  0  0  0
  -12.5285    5.3328  -27.0333 C   0  0  0  0  0  0  0  0  0  0  0  0
  -12.5532    5.1849  -25.5408 C   0  0  0  0  0  0  0  0  0  0  0  0
  -13.6785    5.7792  -24.7467 C   0  0  0  0  0  0  0  0  0  0  0  0
  -13.7030    5.6312  -23.2542 C   0  0  0  0  0  0  0  0  0  0  0  0
  -12.6024    4.8890  -22.5558 C   0  0  0  0  0  0  0  0  0  0  0  0
  -11.4772    4.2947  -23.3499 C   0  0  0  0  0  0  0  0  0  0  0  0
  -11.4526    4.4426  -24.8424 C   0  0  0  0  0  0  0  0  0  0  0  0
   -4.8943   -0.2964  -21.9313 C   0  0  0  0  0  0  0  0  0  0  0  0
   -5.1308    0.0049  -17.9812 C   0  0  0  0  0  0  0  0  0  0  0  0
   -5.4805   -0.3319  -19.4005 N   0  0  0  0  0  0  0  0  0  0  0  0
   -4.5446    0.0403  -20.5120 C   0  0  0  0  0  0  0  0  0  0  0  0
   -3.2590    0.7493  -20.2043 O   0  0  0  0  0  0  0  0  0  0  0  0
   -6.3242   -0.7972  -19.6024 H   0  0  0  0  0  0  0  0  0  0  0  0
 33 34  1  0  0  0
 34 35  1  0  0  0
 35 36  2  0  0  0
 35 32  1  0  0  0
 32  1  1  0  0  0
  1  2  1  0  0  0
  3  2  1  0  0  0
  3  4  1  0  0  0
  4  5  2  0  0  0
  4  6  1  0  0  0
  6 22  1  0  0  0
 22 23  2  0  0  0
 23 24  1  0  0  0
 24 25  2  0  0  0
 25 26  1  0  0  0
 26 27  2  0  0  0
 27 28  1  0  0  0
 28 29  2  0  0  0
 29 30  1  0  0  0
 30 31  2  0  0  0
  6  7  1  0  0  0
  7  8  1  0  0  0
  8  9  1  0  0  0
  3 10  1  0  0  0
 10 11  2  0  0  0
 11 12  1  0  0  0
 12 13  1  0  0  0
 12 14  2  0  0  0
 14 15  1  0  0  0
 15 16  2  0  0  0
 16 17  1  0  0  0
 17 18  2  0  0  0
 17  1  1  0  0  0
  8  3  1  0  0  0
 16 10  1  0  0  0
 31 22  1  0  0  0
 31 26  1  0  0  0
 34 37  1  0  0  0
  9 19  1  0  0  0
  9 20  1  0  0  0
  9 21  1  0  0  0
M  CHG 1   9   1
M  END
> <minimizedAffinity>
-8.06753

> <CNNscore>
0.2701310515

> <CNNaffinity>
5.7641801834

> <CNN_VS>
1.5570840836

> <CNNaffinity_variance>
0.1294813156

$$$$



 37 41  0  0  0  0  0  0  0  0999 V2000
   -6.6130   -0.0861  -22.3548 N   0  0  0  0  0  0  0  0  0  0  0  0
   -7.0218    1.2922  -22.7826 C   0  0  0  0  0  0  0  0  0  0  0  0
   -8.4398    1.5611  -23.1910 C   0  0  0  0  0  0  0  0  0  0  0  0
   -9.8139    1.9786  -23.6241 C   0  0  0  0  0  0  0  0  0  0  0  0
  -10.9233    1.5086  -23.7814 O   0  0  0  0  0  0  0  0  0  0  0  0
   -9.7697    3.4395  -23.9615 N   0  0  0  0  0  0  0  0  0  0  0  0
   -8.3683    3.9249  -23.7369 C   0  0  0  0  0  0  0  0  0  0  0  0
   -7.5464    2.7640  -23.2607 C   0  0  0  0  0  0  0  0  0  0  0  0
   -6.0872    2.7997  -22.9149 N   0  0  0  0  0  0  0  0  0  0  0  0
   -9.4491    0.4515  -23.1716 C   0  0  0  0  0  0  0  0  0  0  0  0
  -10.8672    0.7204  -23.5800 C   0  0  0  0  0  0  0  0  0  0  0  0
  -11.8764   -0.3891  -23.5606 C   0  0  0  0  0  0  0  0  0  0  0  0
  -13.2945   -0.1203  -23.9690 Cl  0  0  0  0  0  0  0  0  0  0  0  0
  -11.4676   -1.7675  -23.1328 C   0  0  0  0  0  0  0  0  0  0  0  0
  -10.0495   -2.0363  -22.7244 C   0  0  0  0  0  0  0  0  0  0  0  0
   -9.0403   -0.9268  -22.7438 C   0  0  0  0  0  0  0  0  0  0  0  0
   -7.6222   -1.1956  -22.3354 C   0  0  0  0  0  0  0  0  0  0  0  0
   -7.2133   -2.5740  -21.9076 O   0  0  0  0  0  0  0  0  0  0  0  0
   -5.6172    1.9515  -22.5986 H   0  0  0  0  0  0  0  0  0  0  0  0
   -5.5651    3.6721  -22.9961 H   0  0  0  0  0  0  0  0  0  0  0  0
   -5.0950    2.8240  -22.6798 H   0  0  0  0  0  0  0  0  0  0  0  0
  -10.9242    4.2693  -24.4396 C   0  0  0  0  0  0  0  0  0  0  0  0
  -11.8676    4.8837  -23.4484 C   0  0  0  0  0  0  0  0  0  0  0  0
  -13.0221    5.7135  -23.9265 N   0  0  0  0  0  0  0  0  0  0  0  0
  -13.2332    5.9289  -25.3958 C   0  0  0  0  0  0  0  0  0  0  0  0
  -12.2898    5.3145  -26.3871 C   0  0  0  0  0  0  0  0  0  0  0  0
  -12.5009    5.5299  -27.8565 C   0  0  0  0  0  0  0  0  0  0  0  0
  -11.5575    4.9155  -28.8477 C   0  0  0  0  0  0  0  0  0  0  0  0
  -10.4030    4.0857  -28.3696 C   0  0  0  0  0  0  0  0  0  0  0  0
  -10.1919    3.8703  -26.9002 C   0  0  0  0  0  0  0  0  0  0  0  0
  -11.1353    4.4847  -25.9090 C   0  0  0  0  0  0  0  0  0  0  0  0
   -5.1948   -0.3549  -21.9464 C   0  0  0  0  0  0  0  0  0  0  0  0
   -5.1802    0.0409  -17.9976 C   0  0  0  0  0  0  0  0  0  0  0  0
   -5.6366   -0.2929  -19.3869 N   0  0  0  0  0  0  0  0  0  0  0  0
   -4.7384   -0.0211  -20.5571 C   0  0  0  0  0  0  0  0  0  0  0  0
   -3.3836    0.5844  -20.3379 O   0  0  0  0  0  0  0  0  0  0  0  0
   -6.5258   -0.6903  -19.5308 H   0  0  0  0  0  0  0  0  0  0  0  0
 33 34  1  0  0  0
 34 35  1  0  0  0
 35 36  2  0  0  0
 35 32  1  0  0  0
 32  1  1  0  0  0
  1  2  1  0  0  0
  3  2  1  0  0  0
  3  4  1  0  0  0
  4  5  2  0  0  0
  4  6  1  0  0  0
  6 22  1  0  0  0
 22 23  2  0  0  0
 23 24  1  0  0  0
 24 25  2  0  0  0
 25 26  1  0  0  0
 26 27  2  0  0  0
 27 28  1  0  0  0
 28 29  2  0  0  0
 29 30  1  0  0  0
 30 31  2  0  0  0
  6  7  1  0  0  0
  7  8  1  0  0  0
  8  9  1  0  0  0
  3 10  1  0  0  0
 10 11  2  0  0  0
 11 12  1  0  0  0
 12 13  1  0  0  0
 12 14  2  0  0  0
 14 15  1  0  0  0
 15 16  2  0  0  0
 16 17  1  0  0  0
 17 18  2  0  0  0
 17  1  1  0  0  0
  8  3  1  0  0  0
 16 10  1  0  0  0
 31 22  1  0  0  0
 31 26  1  0  0  0
 34 37  1  0  0  0
  9 19  1  0  0  0
  9 20  1  0  0  0
  9 21  1  0  0  0
M  CHG 1   9   1
M  END
> <minimizedAffinity>
-8.21290

> <CNNscore>
0.2370716333

> <CNNaffinity>
5.7582664490

> <CNN_VS>
1.3651216030

> <CNNaffinity_variance>
0.1535551697

$$$$



 37 41  0  0  0  0  0  0  0  0999 V2000
   -5.9814    0.7455  -20.7720 N   0  0  0  0  0  0  0  0  0  0  0  0
   -6.3648    1.9177  -21.6258 C   0  0  0  0  0  0  0  0  0  0  0  0
   -7.6027    1.8571  -22.4708 C   0  0  0  0  0  0  0  0  0  0  0  0
   -8.8053    1.9420  -23.3632 C   0  0  0  0  0  0  0  0  0  0  0  0
   -9.7598    1.2724  -23.7052 O   0  0  0  0  0  0  0  0  0  0  0  0
   -8.7967    3.2876  -24.0260 N   0  0  0  0  0  0  0  0  0  0  0  0
   -7.5887    4.0344  -23.5432 C   0  0  0  0  0  0  0  0  0  0  0  0
   -6.8508    3.1503  -22.5820 C   0  0  0  0  0  0  0  0  0  0  0  0
   -5.5834    3.4983  -21.8590 N   0  0  0  0  0  0  0  0  0  0  0  0
   -8.4572    0.6242  -22.4621 C   0  0  0  0  0  0  0  0  0  0  0  0
   -9.6950    0.5636  -23.3071 C   0  0  0  0  0  0  0  0  0  0  0  0
  -10.5494   -0.6692  -23.2983 C   0  0  0  0  0  0  0  0  0  0  0  0
  -11.7873   -0.7298  -24.1433 Cl  0  0  0  0  0  0  0  0  0  0  0  0
  -10.1660   -1.8414  -22.4445 C   0  0  0  0  0  0  0  0  0  0  0  0
   -8.9281   -1.7808  -21.5995 C   0  0  0  0  0  0  0  0  0  0  0  0
   -8.0737   -0.5480  -21.6083 C   0  0  0  0  0  0  0  0  0  0  0  0
   -6.8358   -0.4873  -20.7633 C   0  0  0  0  0  0  0  0  0  0  0  0
   -6.4524   -1.6596  -19.9095 O   0  0  0  0  0  0  0  0  0  0  0  0
   -5.1576    2.8242  -21.2229 H   0  0  0  0  0  0  0  0  0  0  0  0
   -5.1475    4.4090  -22.0035 H   0  0  0  0  0  0  0  0  0  0  0  0
   -4.7216    3.7349  -21.3674 H   0  0  0  0  0  0  0  0  0  0  0  0
   -9.8169    3.7970  -25.0005 C   0  0  0  0  0  0  0  0  0  0  0  0
   -9.5305    3.7631  -26.4725 C   0  0  0  0  0  0  0  0  0  0  0  0
  -10.5508    4.2725  -27.4470 N   0  0  0  0  0  0  0  0  0  0  0  0
  -11.8574    4.8157  -26.9495 C   0  0  0  0  0  0  0  0  0  0  0  0
  -12.1438    4.8496  -25.4774 C   0  0  0  0  0  0  0  0  0  0  0  0
  -13.4505    5.3929  -24.9799 C   0  0  0  0  0  0  0  0  0  0  0  0
  -13.7368    5.4267  -23.5079 C   0  0  0  0  0  0  0  0  0  0  0  0
  -12.7166    4.9173  -22.5334 C   0  0  0  0  0  0  0  0  0  0  0  0
  -11.4099    4.3741  -23.0309 C   0  0  0  0  0  0  0  0  0  0  0  0
  -11.1235    4.3402  -24.5030 C   0  0  0  0  0  0  0  0  0  0  0  0
   -4.7435    0.8061  -19.9270 C   0  0  0  0  0  0  0  0  0  0  0  0
   -1.7007    3.2831  -20.5231 C   0  0  0  0  0  0  0  0  0  0  0  0
   -2.9631    2.6979  -19.9630 N   0  0  0  0  0  0  0  0  0  0  0  0
   -3.4811    1.3914  -20.4871 C   0  0  0  0  0  0  0  0  0  0  0  0
   -2.7366    0.6700  -21.5713 O   0  0  0  0  0  0  0  0  0  0  0  0
   -3.4518    3.1713  -19.2514 H   0  0  0  0  0  0  0  0  0  0  0  0
 33 34  1  0  0  0
 34 35  1  0  0  0
 35 36  2  0  0  0
 35 32  1  0  0  0
 32  1  1  0  0  0
  1  2  1  0  0  0
  3  2  1  0  0  0
  3  4  1  0  0  0
  4  5  2  0  0  0
  4  6  1  0  0  0
  6 22  1  0  0  0
 22 23  2  0  0  0
 23 24  1  0  0  0
 24 25  2  0  0  0
 25 26  1  0  0  0
 26 27  2  0  0  0
 27 28  1  0  0  0
 28 29  2  0  0  0
 29 30  1  0  0  0
 30 31  2  0  0  0
  6  7  1  0  0  0
  7  8  1  0  0  0
  8  9  1  0  0  0
  3 10  1  0  0  0
 10 11  2  0  0  0
 11 12  1  0  0  0
 12 13  1  0  0  0
 12 14  2  0  0  0
 14 15  1  0  0  0
 15 16  2  0  0  0
 16 17  1  0  0  0
 17 18  2  0  0  0
 17  1  1  0  0  0
  8  3  1  0  0  0
 16 10  1  0  0  0
 31 22  1  0  0  0
 31 26  1  0  0  0
 34 37  1  0  0  0
  9 19  1  0  0  0
  9 20  1  0  0  0
  9 21  1  0  0  0
M  CHG 1   9   1
M  END
> <minimizedAffinity>
-8.22372

> <CNNscore>
0.1583778262

> <CNNaffinity>
5.5288853645

> <CNN_VS>
0.8756528497

> <CNNaffinity_variance>
0.2104776353

$$$$



 37 41  0  0  0  0  0  0  0  0999 V2000
   -9.4335   -1.6018  -23.3161 N   0  0  0  0  0  0  0  0  0  0  0  0
   -8.0732   -1.7236  -22.6958 C   0  0  0  0  0  0  0  0  0  0  0  0
   -7.2403   -0.4972  -22.4678 C   0  0  0  0  0  0  0  0  0  0  0  0
   -6.2980    0.6338  -22.1799 C   0  0  0  0  0  0  0  0  0  0  0  0
   -6.2322    1.8419  -22.2916 O   0  0  0  0  0  0  0  0  0  0  0  0
   -5.0588    0.0585  -21.5607 N   0  0  0  0  0  0  0  0  0  0  0  0
   -5.2352   -1.4280  -21.4659 C   0  0  0  0  0  0  0  0  0  0  0  0
   -6.5834   -1.7715  -22.0265 C   0  0  0  0  0  0  0  0  0  0  0  0
   -7.1716   -3.1476  -22.1279 N   0  0  0  0  0  0  0  0  0  0  0  0
   -7.7676    0.8512  -22.8601 C   0  0  0  0  0  0  0  0  0  0  0  0
   -6.9347    2.0776  -22.6321 C   0  0  0  0  0  0  0  0  0  0  0  0
   -7.4621    3.4259  -23.0243 C   0  0  0  0  0  0  0  0  0  0  0  0
   -6.6291    4.6524  -22.7964 Cl  0  0  0  0  0  0  0  0  0  0  0  0
   -8.8224    3.5478  -23.6446 C   0  0  0  0  0  0  0  0  0  0  0  0
   -9.6553    2.3214  -23.8726 C   0  0  0  0  0  0  0  0  0  0  0  0
   -9.1279    0.9731  -23.4804 C   0  0  0  0  0  0  0  0  0  0  0  0
   -9.9609   -0.2535  -23.7084 C   0  0  0  0  0  0  0  0  0  0  0  0
  -11.3212   -0.1316  -24.3286 O   0  0  0  0  0  0  0  0  0  0  0  0
   -8.1013   -3.2768  -22.5271 H   0  0  0  0  0  0  0  0  0  0  0  0
   -6.6418   -3.9543  -21.7978 H   0  0  0  0  0  0  0  0  0  0  0  0
   -7.5715   -4.0834  -22.1969 H   0  0  0  0  0  0  0  0  0  0  0  0
   -3.8546    0.8337  -21.1146 C   0  0  0  0  0  0  0  0  0  0  0  0
   -3.7846    1.3715  -19.7161 C   0  0  0  0  0  0  0  0  0  0  0  0
   -2.5804    2.1467  -19.2700 N   0  0  0  0  0  0  0  0  0  0  0  0
   -1.4462    2.3842  -20.2225 C   0  0  0  0  0  0  0  0  0  0  0  0
   -1.5162    1.8464  -21.6211 C   0  0  0  0  0  0  0  0  0  0  0  0
   -0.3820    2.0838  -22.5736 C   0  0  0  0  0  0  0  0  0  0  0  0
   -0.4521    1.5460  -23.9721 C   0  0  0  0  0  0  0  0  0  0  0  0
   -1.6563    0.7708  -24.4182 C   0  0  0  0  0  0  0  0  0  0  0  0
   -2.7904    0.5334  -23.4657 C   0  0  0  0  0  0  0  0  0  0  0  0
   -2.7204    1.0711  -22.0671 C   0  0  0  0  0  0  0  0  0  0  0  0
  -10.2665   -2.8283  -23.5441 C   0  0  0  0  0  0  0  0  0  0  0  0
   -8.8268   -5.9829  -25.4743 C   0  0  0  0  0  0  0  0  0  0  0  0
   -9.1719   -5.0382  -24.3614 N   0  0  0  0  0  0  0  0  0  0  0  0
   -9.9214   -3.7730  -24.6570 C   0  0  0  0  0  0  0  0  0  0  0  0
  -10.3259   -3.4524  -26.0654 O   0  0  0  0  0  0  0  0  0  0  0  0
   -8.9064   -5.2486  -23.4371 H   0  0  0  0  0  0  0  0  0  0  0  0
 33 34  1  0  0  0
 34 35  1  0  0  0
 35 36  2  0  0  0
 35 32  1  0  0  0
 32  1  1  0  0  0
  1  2  1  0  0  0
  3  2  1  0  0  0
  3  4  1  0  0  0
  4  5  2  0  0  0
  4  6  1  0  0  0
  6 22  1  0  0  0
 22 23  2  0  0  0
 23 24  1  0  0  0
 24 25  2  0  0  0
 25 26  1  0  0  0
 26 27  2  0  0  0
 27 28  1  0  0  0
 28 29  2  0  0  0
 29 30  1  0  0  0
 30 31  2  0  0  0
  6  7  1  0  0  0
  7  8  1  0  0  0
  8  9  1  0  0  0
  3 10  1  0  0  0
 10 11  2  0  0  0
 11 12  1  0  0  0
 12 13  1  0  0  0
 12 14  2  0  0  0
 14 15  1  0  0  0
 15 16  2  0  0  0
 16 17  1  0  0  0
 17 18  2  0  0  0
 17  1  1  0  0  0
  8  3  1  0  0  0
 16 10  1  0  0  0
 31 22  1  0  0  0
 31 26  1  0  0  0
 34 37  1  0  0  0
  9 19  1  0  0  0
  9 20  1  0  0  0
  9 21  1  0  0  0
M  CHG 1   9   1
M  END
> <minimizedAffinity>
-7.30811

> <CNNscore>
0.1371695846

> <CNNaffinity>
5.5774040222

> <CNN_VS>
0.7650501728

> <CNNaffinity_variance>
0.1252322048

$$$$
