


 34 39  0  0  0  0  0  0  0  0999 V2000
   10.7747    0.4075   23.1944 N   0  0  0  0  0  0  0  0  0  0  0  0
    9.5148    0.2785   22.3907 C   0  0  0  0  0  0  0  0  0  0  0  0
    8.6072   -0.8967   22.6024 C   0  0  0  0  0  0  0  0  0  0  0  0
    7.6072   -2.0102   22.7031 C   0  0  0  0  0  0  0  0  0  0  0  0
    6.5080   -1.7365   21.7198 C   0  0  0  0  0  0  0  0  0  0  0  0
    6.8287   -0.4539   21.0113 N   0  0  0  0  0  0  0  0  0  0  0  0
    8.1260    0.0651   21.5567 C   0  0  0  0  0  0  0  0  0  0  0  0
    8.8203    1.3249   21.1313 O   0  0  0  0  0  0  0  0  0  0  0  0
    8.9594   -1.9431   23.6179 C   0  0  0  0  0  0  0  0  0  0  0  0
    8.0517   -3.1183   23.8296 C   0  0  0  0  0  0  0  0  0  0  0  0
    8.4040   -4.1646   24.8450 C   0  0  0  0  0  0  0  0  0  0  0  0
    7.4963   -5.3400   25.0567 Cl  0  0  0  0  0  0  0  0  0  0  0  0
    9.6639   -4.0357   25.6487 C   0  0  0  0  0  0  0  0  0  0  0  0
   10.5715   -2.8604   25.4370 C   0  0  0  0  0  0  0  0  0  0  0  0
   10.2193   -1.8141   24.4216 C   0  0  0  0  0  0  0  0  0  0  0  0
   11.1270   -0.6388   24.2099 C   0  0  0  0  0  0  0  0  0  0  0  0
   12.3869   -0.5098   25.0136 O   0  0  0  0  0  0  0  0  0  0  0  0
    5.9979    0.1957   19.9446 C   0  0  0  0  0  0  0  0  0  0  0  0
    6.2943   -0.0686   18.4982 C   0  0  0  0  0  0  0  0  0  0  0  0
    5.4635    0.5810   17.4315 N   0  0  0  0  0  0  0  0  0  0  0  0
    4.3364    1.4949   17.8113 C   0  0  0  0  0  0  0  0  0  0  0  0
    4.0400    1.7592   19.2578 C   0  0  0  0  0  0  0  0  0  0  0  0
    2.9128    2.6732   19.6376 C   0  0  0  0  0  0  0  0  0  0  0  0
    2.6165    2.9375   21.0841 C   0  0  0  0  0  0  0  0  0  0  0  0
    3.4472    2.2879   22.1507 C   0  0  0  0  0  0  0  0  0  0  0  0
    4.5744    1.3739   21.7709 C   0  0  0  0  0  0  0  0  0  0  0  0
    4.8707    1.1096   20.3245 C   0  0  0  0  0  0  0  0  0  0  0  0
   11.6824    1.5829   22.9827 C   0  0  0  0  0  0  0  0  0  0  0  0
   11.2308    6.8094   22.3825 C   0  0  0  0  0  0  0  0  0  0  0  0
   10.9087    5.3740   22.6751 N   0  0  0  0  0  0  0  0  0  0  0  0
    9.5813    4.8432   23.1296 C   0  0  0  0  0  0  0  0  0  0  0  0
    9.7097    3.3584   23.3000 C   0  0  0  0  0  0  0  0  0  0  0  0
   11.1162    2.9716   22.9510 C   0  0  0  0  0  0  0  0  0  0  0  0
   11.8574    4.2173   22.5648 N   0  0  0  0  0  0  0  0  0  0  0  0
 29 30  1  0  0  0
 30 31  1  0  0  0
 31 32  2  0  0  0
 32 33  1  0  0  0
 33 28  1  0  0  0
 28  1  1  0  0  0
  1  2  1  0  0  0
  3  2  1  0  0  0
  3  4  1  0  0  0
  4  5  1  0  0  0
  5  6  1  0  0  0
  6 18  1  0  0  0
 18 19  2  0  0  0
 19 20  1  0  0  0
 20 21  2  0  0  0
 21 22  1  0  0  0
 22 23  2  0  0  0
 23 24  1  0  0  0
 24 25  2  0  0  0
 25 26  1  0  0  0
 26 27  2  0  0  0
  6  7  1  0  0  0
  7  8  2  0  0  0
  3  9  1  0  0  0
  9 10  2  0  0  0
 10 11  1  0  0  0
 11 12  1  0  0  0
 11 13  2  0  0  0
 13 14  1  0  0  0
 14 15  2  0  0  0
 15 16  1  0  0  0
 16 17  2  0  0  0
 33 34  2  0  0  0
 34 30  1  0  0  0
 16  1  1  0  0  0
  7  3  1  0  0  0
 15  9  1  0  0  0
 27 18  1  0  0  0
 27 22  1  0  0  0
M  END
> <minimizedAffinity>
-9.00922

> <CNNscore>
0.6135888696

> <CNNaffinity>
6.9335393906

> <CNN_VS>
4.2543425560

> <CNNaffinity_variance>
0.0610443838

$$$$



 34 39  0  0  0  0  0  0  0  0999 V2000
    8.2373    0.2161   23.2394 N   0  0  0  0  0  0  0  0  0  0  0  0
    7.6974   -0.8920   24.0941 C   0  0  0  0  0  0  0  0  0  0  0  0
    8.6348   -1.7468   24.8944 C   0  0  0  0  0  0  0  0  0  0  0  0
    9.4454   -2.6790   25.7452 C   0  0  0  0  0  0  0  0  0  0  0  0
    8.5010   -3.6257   26.4250 C   0  0  0  0  0  0  0  0  0  0  0  0
    7.1068   -3.2784   25.9943 N   0  0  0  0  0  0  0  0  0  0  0  0
    7.1895   -2.1172   25.0484 C   0  0  0  0  0  0  0  0  0  0  0  0
    6.0303   -1.4446   24.3747 O   0  0  0  0  0  0  0  0  0  0  0  0
   10.1123   -1.4934   24.8401 C   0  0  0  0  0  0  0  0  0  0  0  0
   11.0498   -2.3482   25.6404 C   0  0  0  0  0  0  0  0  0  0  0  0
   12.5272   -2.0948   25.5860 C   0  0  0  0  0  0  0  0  0  0  0  0
   13.4647   -2.9496   26.3863 Cl  0  0  0  0  0  0  0  0  0  0  0  0
   13.0671   -0.9867   24.7313 C   0  0  0  0  0  0  0  0  0  0  0  0
   12.1297   -0.1319   23.9310 C   0  0  0  0  0  0  0  0  0  0  0  0
   10.6523   -0.3853   23.9854 C   0  0  0  0  0  0  0  0  0  0  0  0
    9.7148    0.4695   23.1850 C   0  0  0  0  0  0  0  0  0  0  0  0
   10.2547    1.5776   22.3304 O   0  0  0  0  0  0  0  0  0  0  0  0
    5.8504   -3.9708   26.4326 C   0  0  0  0  0  0  0  0  0  0  0  0
    5.1485   -4.9125   25.4996 C   0  0  0  0  0  0  0  0  0  0  0  0
    3.8921   -5.6049   25.9379 N   0  0  0  0  0  0  0  0  0  0  0  0
    3.3377   -5.3555   27.3092 C   0  0  0  0  0  0  0  0  0  0  0  0
    4.0396   -4.4138   28.2422 C   0  0  0  0  0  0  0  0  0  0  0  0
    3.4851   -4.1644   29.6135 C   0  0  0  0  0  0  0  0  0  0  0  0
    4.1871   -3.2227   30.5464 C   0  0  0  0  0  0  0  0  0  0  0  0
    5.4434   -2.5304   30.1081 C   0  0  0  0  0  0  0  0  0  0  0  0
    5.9979   -2.7797   28.7368 C   0  0  0  0  0  0  0  0  0  0  0  0
    5.2960   -3.7214   27.8039 C   0  0  0  0  0  0  0  0  0  0  0  0
    7.2998    1.0709   22.4391 C   0  0  0  0  0  0  0  0  0  0  0  0
    6.1867    6.2213   22.0993 C   0  0  0  0  0  0  0  0  0  0  0  0
    6.6055    4.8847   22.6360 N   0  0  0  0  0  0  0  0  0  0  0  0
    7.0667    4.6014   24.0349 C   0  0  0  0  0  0  0  0  0  0  0  0
    7.3829    3.1383   24.1314 C   0  0  0  0  0  0  0  0  0  0  0  0
    7.1172    2.5173   22.7921 C   0  0  0  0  0  0  0  0  0  0  0  0
    6.6367    3.5966   21.8678 N   0  0  0  0  0  0  0  0  0  0  0  0
 29 30  1  0  0  0
 30 31  1  0  0  0
 31 32  2  0  0  0
 32 33  1  0  0  0
 33 28  1  0  0  0
 28  1  1  0  0  0
  1  2  1  0  0  0
  3  2  1  0  0  0
  3  4  1  0  0  0
  4  5  1  0  0  0
  5  6  1  0  0  0
  6 18  1  0  0  0
 18 19  2  0  0  0
 19 20  1  0  0  0
 20 21  2  0  0  0
 21 22  1  0  0  0
 22 23  2  0  0  0
 23 24  1  0  0  0
 24 25  2  0  0  0
 25 26  1  0  0  0
 26 27  2  0  0  0
  6  7  1  0  0  0
  7  8  2  0  0  0
  3  9  1  0  0  0
  9 10  2  0  0  0
 10 11  1  0  0  0
 11 12  1  0  0  0
 11 13  2  0  0  0
 13 14  1  0  0  0
 14 15  2  0  0  0
 15 16  1  0  0  0
 16 17  2  0  0  0
 33 34  2  0  0  0
 34 30  1  0  0  0
 16  1  1  0  0  0
  7  3  1  0  0  0
 15  9  1  0  0  0
 27 18  1  0  0  0
 27 22  1  0  0  0
M  END
> <minimizedAffinity>
-7.49402

> <CNNscore>
0.5415287018

> <CNNaffinity>
6.7145109177

> <CNN_VS>
3.6361002922

> <CNNaffinity_variance>
0.3069910109

$$$$



 34 39  0  0  0  0  0  0  0  0999 V2000
    6.0437   -4.8833   23.0078 N   0  0  0  0  0  0  0  0  0  0  0  0
    6.0368   -3.5827   22.2606 C   0  0  0  0  0  0  0  0  0  0  0  0
    7.0584   -2.5308   22.5765 C   0  0  0  0  0  0  0  0  0  0  0  0
    8.0118   -1.3911   22.7815 C   0  0  0  0  0  0  0  0  0  0  0  0
    7.6395   -0.2974   21.8248 C   0  0  0  0  0  0  0  0  0  0  0  0
    6.4559   -0.7611   21.0285 N   0  0  0  0  0  0  0  0  0  0  0  0
    6.0968   -2.1414   21.4931 C   0  0  0  0  0  0  0  0  0  0  0  0
    4.9732   -2.9844   20.9667 O   0  0  0  0  0  0  0  0  0  0  0  0
    8.0869   -2.7794   23.6397 C   0  0  0  0  0  0  0  0  0  0  0  0
    9.1084   -1.7275   23.9557 C   0  0  0  0  0  0  0  0  0  0  0  0
   10.1369   -1.9762   25.0189 C   0  0  0  0  0  0  0  0  0  0  0  0
   11.1585   -0.9243   25.3349 Cl  0  0  0  0  0  0  0  0  0  0  0  0
   10.1438   -3.2768   25.7661 C   0  0  0  0  0  0  0  0  0  0  0  0
    9.1222   -4.3288   25.4501 C   0  0  0  0  0  0  0  0  0  0  0  0
    8.0938   -4.0800   24.3870 C   0  0  0  0  0  0  0  0  0  0  0  0
    7.0722   -5.1320   24.0710 C   0  0  0  0  0  0  0  0  0  0  0  0
    7.0791   -6.4326   24.8182 O   0  0  0  0  0  0  0  0  0  0  0  0
    5.7546    0.0185   19.9560 C   0  0  0  0  0  0  0  0  0  0  0  0
    6.2371   -0.0557   18.5377 C   0  0  0  0  0  0  0  0  0  0  0  0
    5.5358    0.7239   17.4652 N   0  0  0  0  0  0  0  0  0  0  0  0
    4.3520    1.5777   17.8110 C   0  0  0  0  0  0  0  0  0  0  0  0
    3.8694    1.6518   19.2293 C   0  0  0  0  0  0  0  0  0  0  0  0
    2.6855    2.5056   19.5751 C   0  0  0  0  0  0  0  0  0  0  0  0
    2.2031    2.5797   20.9935 C   0  0  0  0  0  0  0  0  0  0  0  0
    2.9044    1.8001   22.0659 C   0  0  0  0  0  0  0  0  0  0  0  0
    4.0882    0.9463   21.7201 C   0  0  0  0  0  0  0  0  0  0  0  0
    4.5707    0.8722   20.3019 C   0  0  0  0  0  0  0  0  0  0  0  0
    5.0221   -5.9352   22.6918 C   0  0  0  0  0  0  0  0  0  0  0  0
    1.6814   -5.5673   26.7643 C   0  0  0  0  0  0  0  0  0  0  0  0
    2.2703   -5.9144   25.4291 N   0  0  0  0  0  0  0  0  0  0  0  0
    1.5984   -6.7089   24.3487 C   0  0  0  0  0  0  0  0  0  0  0  0
    2.5475   -6.8134   23.1918 C   0  0  0  0  0  0  0  0  0  0  0  0
    3.8059   -6.0835   23.5572 C   0  0  0  0  0  0  0  0  0  0  0  0
    3.6346   -5.5278   24.9400 N   0  0  0  0  0  0  0  0  0  0  0  0
 29 30  1  0  0  0
 30 31  1  0  0  0
 31 32  2  0  0  0
 32 33  1  0  0  0
 33 28  1  0  0  0
 28  1  1  0  0  0
  1  2  1  0  0  0
  3  2  1  0  0  0
  3  4  1  0  0  0
  4  5  1  0  0  0
  5  6  1  0  0  0
  6 18  1  0  0  0
 18 19  2  0  0  0
 19 20  1  0  0  0
 20 21  2  0  0  0
 21 22  1  0  0  0
 22 23  2  0  0  0
 23 24  1  0  0  0
 24 25  2  0  0  0
 25 26  1  0  0  0
 26 27  2  0  0  0
  6  7  1  0  0  0
  7  8  2  0  0  0
  3  9  1  0  0  0
  9 10  2  0  0  0
 10 11  1  0  0  0
 11 12  1  0  0  0
 11 13  2  0  0  0
 13 14  1  0  0  0
 14 15  2  0  0  0
 15 16  1  0  0  0
 16 17  2  0  0  0
 33 34  2  0  0  0
 34 30  1  0  0  0
 16  1  1  0  0  0
  7  3  1  0  0  0
 15  9  1  0  0  0
 27 18  1  0  0  0
 27 22  1  0  0  0
M  END
> <minimizedAffinity>
-8.16007

> <CNNscore>
0.4940439761

> <CNNaffinity>
6.5456771851

> <CNN_VS>
3.2338523865

> <CNNaffinity_variance>
0.0307900496

$$$$



 34 39  0  0  0  0  0  0  0  0999 V2000
    6.9743   -2.6036   25.3125 N   0  0  0  0  0  0  0  0  0  0  0  0
    6.8870   -1.9131   23.9838 C   0  0  0  0  0  0  0  0  0  0  0  0
    8.1400   -1.5144   23.2620 C   0  0  0  0  0  0  0  0  0  0  0  0
    9.3000   -1.0586   22.4273 C   0  0  0  0  0  0  0  0  0  0  0  0
    8.7543   -0.4209   21.1841 C   0  0  0  0  0  0  0  0  0  0  0  0
    7.2571   -0.4826   21.2504 N   0  0  0  0  0  0  0  0  0  0  0  0
    6.8774   -1.1584   22.5346 C   0  0  0  0  0  0  0  0  0  0  0  0
    5.4804   -1.4305   23.0082 O   0  0  0  0  0  0  0  0  0  0  0  0
    9.4804   -1.8062   23.8689 C   0  0  0  0  0  0  0  0  0  0  0  0
   10.7334   -1.4075   23.1472 C   0  0  0  0  0  0  0  0  0  0  0  0
   12.0737   -1.6993   23.7541 C   0  0  0  0  0  0  0  0  0  0  0  0
   13.3267   -1.3006   23.0323 Cl  0  0  0  0  0  0  0  0  0  0  0  0
   12.1610   -2.3898   25.0829 C   0  0  0  0  0  0  0  0  0  0  0  0
   10.9080   -2.7885   25.8047 C   0  0  0  0  0  0  0  0  0  0  0  0
    9.5677   -2.4967   25.1977 C   0  0  0  0  0  0  0  0  0  0  0  0
    8.3146   -2.8954   25.9195 C   0  0  0  0  0  0  0  0  0  0  0  0
    8.4019   -3.5859   27.2482 O   0  0  0  0  0  0  0  0  0  0  0  0
    6.3063    0.0397   20.2144 C   0  0  0  0  0  0  0  0  0  0  0  0
    6.2196   -0.6254   18.8727 C   0  0  0  0  0  0  0  0  0  0  0  0
    5.2689   -0.1030   17.8367 N   0  0  0  0  0  0  0  0  0  0  0  0
    4.4049    1.0844   18.1425 C   0  0  0  0  0  0  0  0  0  0  0  0
    4.4917    1.7495   19.4842 C   0  0  0  0  0  0  0  0  0  0  0  0
    3.6276    2.9370   19.7899 C   0  0  0  0  0  0  0  0  0  0  0  0
    3.7144    3.6020   21.1316 C   0  0  0  0  0  0  0  0  0  0  0  0
    4.6651    3.0797   22.1675 C   0  0  0  0  0  0  0  0  0  0  0  0
    5.5291    1.8922   21.8618 C   0  0  0  0  0  0  0  0  0  0  0  0
    5.4424    1.2272   20.5202 C   0  0  0  0  0  0  0  0  0  0  0  0
    5.7212   -3.0023   26.0343 C   0  0  0  0  0  0  0  0  0  0  0  0
    5.3039   -0.0763   30.4098 C   0  0  0  0  0  0  0  0  0  0  0  0
    5.3244   -1.2484   29.4741 N   0  0  0  0  0  0  0  0  0  0  0  0
    5.0770   -2.6798   29.8483 C   0  0  0  0  0  0  0  0  0  0  0  0
    5.1956   -3.5110   28.6053 C   0  0  0  0  0  0  0  0  0  0  0  0
    5.5162   -2.5934   27.4629 C   0  0  0  0  0  0  0  0  0  0  0  0
    5.5958   -1.1950   27.9998 N   0  0  0  0  0  0  0  0  0  0  0  0
 29 30  1  0  0  0
 30 31  1  0  0  0
 31 32  2  0  0  0
 32 33  1  0  0  0
 33 28  1  0  0  0
 28  1  1  0  0  0
  1  2  1  0  0  0
  3  2  1  0  0  0
  3  4  1  0  0  0
  4  5  1  0  0  0
  5  6  1  0  0  0
  6 18  1  0  0  0
 18 19  2  0  0  0
 19 20  1  0  0  0
 20 21  2  0  0  0
 21 22  1  0  0  0
 22 23  2  0  0  0
 23 24  1  0  0  0
 24 25  2  0  0  0
 25 26  1  0  0  0
 26 27  2  0  0  0
  6  7  1  0  0  0
  7  8  2  0  0  0
  3  9  1  0  0  0
  9 10  2  0  0  0
 10 11  1  0  0  0
 11 12  1  0  0  0
 11 13  2  0  0  0
 13 14  1  0  0  0
 14 15  2  0  0  0
 15 16  1  0  0  0
 16 17  2  0  0  0
 33 34  2  0  0  0
 34 30  1  0  0  0
 16  1  1  0  0  0
  7  3  1  0  0  0
 15  9  1  0  0  0
 27 18  1  0  0  0
 27 22  1  0  0  0
M  END
> <minimizedAffinity>
-8.21696

> <CNNscore>
0.4040542245

> <CNNaffinity>
6.6667833328

> <CNN_VS>
2.6937420368

> <CNNaffinity_variance>
0.1176004410

$$$$



 34 39  0  0  0  0  0  0  0  0999 V2000
    7.4467   -0.2455   21.8026 N   0  0  0  0  0  0  0  0  0  0  0  0
    7.3141   -1.5248   22.5744 C   0  0  0  0  0  0  0  0  0  0  0  0
    8.4368   -1.9902   23.4536 C   0  0  0  0  0  0  0  0  0  0  0  0
    9.4697   -2.5793   24.3680 C   0  0  0  0  0  0  0  0  0  0  0  0
    8.9193   -3.8582   24.9261 C   0  0  0  0  0  0  0  0  0  0  0  0
    7.5463   -4.0595   24.3566 N   0  0  0  0  0  0  0  0  0  0  0  0
    7.2482   -2.9050   23.4466 C   0  0  0  0  0  0  0  0  0  0  0  0
    5.9833   -2.7012   22.6664 O   0  0  0  0  0  0  0  0  0  0  0  0
    9.6923   -1.1762   23.5609 C   0  0  0  0  0  0  0  0  0  0  0  0
   10.8150   -1.6415   24.4400 C   0  0  0  0  0  0  0  0  0  0  0  0
   12.0703   -0.8275   24.5472 C   0  0  0  0  0  0  0  0  0  0  0  0
   13.1931   -1.2928   25.4264 Cl  0  0  0  0  0  0  0  0  0  0  0  0
   12.2029    0.4518   23.7754 C   0  0  0  0  0  0  0  0  0  0  0  0
   11.0801    0.9172   22.8962 C   0  0  0  0  0  0  0  0  0  0  0  0
    9.8248    0.1032   22.7890 C   0  0  0  0  0  0  0  0  0  0  0  0
    8.7020    0.5685   21.9098 C   0  0  0  0  0  0  0  0  0  0  0  0
    8.8346    1.8478   21.1379 O   0  0  0  0  0  0  0  0  0  0  0  0
    6.6320   -5.2128   24.6463 C   0  0  0  0  0  0  0  0  0  0  0  0
    6.9692   -6.5832   24.1383 C   0  0  0  0  0  0  0  0  0  0  0  0
    6.0549   -7.7365   24.4279 N   0  0  0  0  0  0  0  0  0  0  0  0
    4.8034   -7.5193   25.2257 C   0  0  0  0  0  0  0  0  0  0  0  0
    4.4662   -6.1488   25.7339 C   0  0  0  0  0  0  0  0  0  0  0  0
    3.2146   -5.9317   26.5317 C   0  0  0  0  0  0  0  0  0  0  0  0
    2.8774   -4.5612   27.0398 C   0  0  0  0  0  0  0  0  0  0  0  0
    3.7918   -3.4080   26.7500 C   0  0  0  0  0  0  0  0  0  0  0  0
    5.0433   -3.6252   25.9522 C   0  0  0  0  0  0  0  0  0  0  0  0
    5.3805   -4.9955   25.4442 C   0  0  0  0  0  0  0  0  0  0  0  0
    6.3239    0.2198   20.9234 C   0  0  0  0  0  0  0  0  0  0  0  0
    1.4707    2.2210   21.4915 C   0  0  0  0  0  0  0  0  0  0  0  0
    2.8115    1.6219   21.7969 N   0  0  0  0  0  0  0  0  0  0  0  0
    3.3287    1.2663   23.1593 C   0  0  0  0  0  0  0  0  0  0  0  0
    4.7074    0.6978   22.9979 C   0  0  0  0  0  0  0  0  0  0  0  0
    5.0423    0.7020   21.5358 C   0  0  0  0  0  0  0  0  0  0  0  0
    3.8706    1.2731   20.7935 N   0  0  0  0  0  0  0  0  0  0  0  0
 29 30  1  0  0  0
 30 31  1  0  0  0
 31 32  2  0  0  0
 32 33  1  0  0  0
 33 28  1  0  0  0
 28  1  1  0  0  0
  1  2  1  0  0  0
  3  2  1  0  0  0
  3  4  1  0  0  0
  4  5  1  0  0  0
  5  6  1  0  0  0
  6 18  1  0  0  0
 18 19  2  0  0  0
 19 20  1  0  0  0
 20 21  2  0  0  0
 21 22  1  0  0  0
 22 23  2  0  0  0
 23 24  1  0  0  0
 24 25  2  0  0  0
 25 26  1  0  0  0
 26 27  2  0  0  0
  6  7  1  0  0  0
  7  8  2  0  0  0
  3  9  1  0  0  0
  9 10  2  0  0  0
 10 11  1  0  0  0
 11 12  1  0  0  0
 11 13  2  0  0  0
 13 14  1  0  0  0
 14 15  2  0  0  0
 15 16  1  0  0  0
 16 17  2  0  0  0
 33 34  2  0  0  0
 34 30  1  0  0  0
 16  1  1  0  0  0
  7  3  1  0  0  0
 15  9  1  0  0  0
 27 18  1  0  0  0
 27 22  1  0  0  0
M  END
> <minimizedAffinity>
-8.27684

> <CNNscore>
0.3543994129

> <CNNaffinity>
6.5385956764

> <CNN_VS>
2.3172745705

> <CNNaffinity_variance>
0.2405083179

$$$$



 34 39  0  0  0  0  0  0  0  0999 V2000
    8.3272    0.3901   23.4040 N   0  0  0  0  0  0  0  0  0  0  0  0
    7.7274   -0.7177   24.2182 C   0  0  0  0  0  0  0  0  0  0  0  0
    8.6165   -1.6497   24.9868 C   0  0  0  0  0  0  0  0  0  0  0  0
    9.3747   -2.6541   25.8031 C   0  0  0  0  0  0  0  0  0  0  0  0
    8.3800   -3.5728   26.4485 C   0  0  0  0  0  0  0  0  0  0  0  0
    7.0070   -3.1362   26.0311 N   0  0  0  0  0  0  0  0  0  0  0  0
    7.1532   -1.9477   25.1277 C   0  0  0  0  0  0  0  0  0  0  0  0
    6.0327   -1.1901   24.4792 O   0  0  0  0  0  0  0  0  0  0  0  0
   10.1055   -1.4739   24.9412 C   0  0  0  0  0  0  0  0  0  0  0  0
   10.9946   -2.4059   25.7098 C   0  0  0  0  0  0  0  0  0  0  0  0
   12.4836   -2.2301   25.6641 C   0  0  0  0  0  0  0  0  0  0  0  0
   13.3728   -3.1622   26.4328 Cl  0  0  0  0  0  0  0  0  0  0  0  0
   13.0834   -1.1223   24.8499 C   0  0  0  0  0  0  0  0  0  0  0  0
   12.1942   -0.1903   24.0813 C   0  0  0  0  0  0  0  0  0  0  0  0
   10.7053   -0.3661   24.1270 C   0  0  0  0  0  0  0  0  0  0  0  0
    9.8161    0.5659   23.3583 C   0  0  0  0  0  0  0  0  0  0  0  0
   10.4159    1.6737   22.5441 O   0  0  0  0  0  0  0  0  0  0  0  0
    5.7147   -3.7757   26.4445 C   0  0  0  0  0  0  0  0  0  0  0  0
    4.9468   -4.6151   25.4669 C   0  0  0  0  0  0  0  0  0  0  0  0
    3.6545   -5.2547   25.8803 N   0  0  0  0  0  0  0  0  0  0  0  0
    3.1301   -5.0548   27.2713 C   0  0  0  0  0  0  0  0  0  0  0  0
    3.8980   -4.2155   28.2490 C   0  0  0  0  0  0  0  0  0  0  0  0
    3.3735   -4.0157   29.6401 C   0  0  0  0  0  0  0  0  0  0  0  0
    4.1415   -3.1763   30.6177 C   0  0  0  0  0  0  0  0  0  0  0  0
    5.4337   -2.5368   30.2043 C   0  0  0  0  0  0  0  0  0  0  0  0
    5.9581   -2.7366   28.8132 C   0  0  0  0  0  0  0  0  0  0  0  0
    5.1903   -3.5759   27.8356 C   0  0  0  0  0  0  0  0  0  0  0  0
    7.4380    1.3221   22.6354 C   0  0  0  0  0  0  0  0  0  0  0  0
    4.5041    1.1007   18.2508 C   0  0  0  0  0  0  0  0  0  0  0  0
    5.5614    0.8151   19.2757 N   0  0  0  0  0  0  0  0  0  0  0  0
    6.6336   -0.2285   19.1692 C   0  0  0  0  0  0  0  0  0  0  0  0
    7.4670   -0.1656   20.4148 C   0  0  0  0  0  0  0  0  0  0  0  0
    6.9100    0.9169   21.2911 C   0  0  0  0  0  0  0  0  0  0  0  0
    5.7322    1.5230   20.5871 N   0  0  0  0  0  0  0  0  0  0  0  0
 29 30  1  0  0  0
 30 31  1  0  0  0
 31 32  2  0  0  0
 32 33  1  0  0  0
 33 28  1  0  0  0
 28  1  1  0  0  0
  1  2  1  0  0  0
  3  2  1  0  0  0
  3  4  1  0  0  0
  4  5  1  0  0  0
  5  6  1  0  0  0
  6 18  1  0  0  0
 18 19  2  0  0  0
 19 20  1  0  0  0
 20 21  2  0  0  0
 21 22  1  0  0  0
 22 23  2  0  0  0
 23 24  1  0  0  0
 24 25  2  0  0  0
 25 26  1  0  0  0
 26 27  2  0  0  0
  6  7  1  0  0  0
  7  8  2  0  0  0
  3  9  1  0  0  0
  9 10  2  0  0  0
 10 11  1  0  0  0
 11 12  1  0  0  0
 11 13  2  0  0  0
 13 14  1  0  0  0
 14 15  2  0  0  0
 15 16  1  0  0  0
 16 17  2  0  0  0
 33 34  2  0  0  0
 34 30  1  0  0  0
 16  1  1  0  0  0
  7  3  1  0  0  0
 15  9  1  0  0  0
 27 18  1  0  0  0
 27 22  1  0  0  0
M  END
> <minimizedAffinity>
-8.54322

> <CNNscore>
0.3345668316

> <CNNaffinity>
6.3802762032

> <CNN_VS>
2.1346287727

> <CNNaffinity_variance>
0.1356983036

$$$$



 34 39  0  0  0  0  0  0  0  0999 V2000
   10.9213   -0.0987   23.1188 N   0  0  0  0  0  0  0  0  0  0  0  0
    9.5347    0.3632   23.4562 C   0  0  0  0  0  0  0  0  0  0  0  0
    9.2013    1.8252   23.4192 C   0  0  0  0  0  0  0  0  0  0  0  0
    8.7225    3.2467   23.4254 C   0  0  0  0  0  0  0  0  0  0  0  0
    7.2752    3.2466   23.8197 C   0  0  0  0  0  0  0  0  0  0  0  0
    6.8596    1.8251   24.0572 N   0  0  0  0  0  0  0  0  0  0  0  0
    8.0499    0.9466   23.8097 C   0  0  0  0  0  0  0  0  0  0  0  0
    8.0831   -0.5481   23.9313 O   0  0  0  0  0  0  0  0  0  0  0  0
   10.2546    2.8254   23.0448 C   0  0  0  0  0  0  0  0  0  0  0  0
    9.9213    4.2874   23.0078 C   0  0  0  0  0  0  0  0  0  0  0  0
   10.9746    5.2875   22.6334 C   0  0  0  0  0  0  0  0  0  0  0  0
   10.6412    6.7496   22.5964 Cl  0  0  0  0  0  0  0  0  0  0  0  0
   12.3613    4.8257   22.2960 C   0  0  0  0  0  0  0  0  0  0  0  0
   12.6946    3.3637   22.3330 C   0  0  0  0  0  0  0  0  0  0  0  0
   11.6413    2.3635   22.7074 C   0  0  0  0  0  0  0  0  0  0  0  0
   11.9746    0.9015   22.7444 C   0  0  0  0  0  0  0  0  0  0  0  0
   13.3613    0.4396   22.4070 O   0  0  0  0  0  0  0  0  0  0  0  0
    5.4934    1.3631   24.4697 C   0  0  0  0  0  0  0  0  0  0  0  0
    4.4237    1.1688   23.4365 C   0  0  0  0  0  0  0  0  0  0  0  0
    3.0575    0.7068   23.8490 N   0  0  0  0  0  0  0  0  0  0  0  0
    2.7612    0.4392   25.2949 C   0  0  0  0  0  0  0  0  0  0  0  0
    3.8310    0.6336   26.3282 C   0  0  0  0  0  0  0  0  0  0  0  0
    3.5346    0.3660   27.7742 C   0  0  0  0  0  0  0  0  0  0  0  0
    4.6045    0.5604   28.8074 C   0  0  0  0  0  0  0  0  0  0  0  0
    5.9706    1.0224   28.3948 C   0  0  0  0  0  0  0  0  0  0  0  0
    6.2669    1.2899   26.9489 C   0  0  0  0  0  0  0  0  0  0  0  0
    5.1972    1.0956   25.9157 C   0  0  0  0  0  0  0  0  0  0  0  0
   11.2547   -1.5608   23.1558 C   0  0  0  0  0  0  0  0  0  0  0  0
   10.8253   -4.5107   27.5140 C   0  0  0  0  0  0  0  0  0  0  0  0
   11.3663   -3.5826   26.4671 N   0  0  0  0  0  0  0  0  0  0  0  0
   12.7120   -2.9202   26.4865 C   0  0  0  0  0  0  0  0  0  0  0  0
   12.8339   -2.0822   25.2484 C   0  0  0  0  0  0  0  0  0  0  0  0
   11.5637   -2.2267   24.4638 C   0  0  0  0  0  0  0  0  0  0  0  0
   10.6566   -3.1540   25.2171 N   0  0  0  0  0  0  0  0  0  0  0  0
 29 30  1  0  0  0
 30 31  1  0  0  0
 31 32  2  0  0  0
 32 33  1  0  0  0
 33 28  1  0  0  0
 28  1  1  0  0  0
  1  2  1  0  0  0
  3  2  1  0  0  0
  3  4  1  0  0  0
  4  5  1  0  0  0
  5  6  1  0  0  0
  6 18  1  0  0  0
 18 19  2  0  0  0
 19 20  1  0  0  0
 20 21  2  0  0  0
 21 22  1  0  0  0
 22 23  2  0  0  0
 23 24  1  0  0  0
 24 25  2  0  0  0
 25 26  1  0  0  0
 26 27  2  0  0  0
  6  7  1  0  0  0
  7  8  2  0  0  0
  3  9  1  0  0  0
  9 10  2  0  0  0
 10 11  1  0  0  0
 11 12  1  0  0  0
 11 13  2  0  0  0
 13 14  1  0  0  0
 14 15  2  0  0  0
 15 16  1  0  0  0
 16 17  2  0  0  0
 33 34  2  0  0  0
 34 30  1  0  0  0
 16  1  1  0  0  0
  7  3  1  0  0  0
 15  9  1  0  0  0
 27 18  1  0  0  0
 27 22  1  0  0  0
M  END
> <minimizedAffinity>
-7.77520

> <CNNscore>
0.2813666463

> <CNNaffinity>
6.3742852211

> <CNN_VS>
1.7935112715

> <CNNaffinity_variance>
0.0585720167

$$$$



 34 39  0  0  0  0  0  0  0  0999 V2000
    5.0973    0.9726   24.7983 N   0  0  0  0  0  0  0  0  0  0  0  0
    6.4923    0.5153   24.4907 C   0  0  0  0  0  0  0  0  0  0  0  0
    6.9225    0.3257   23.0663 C   0  0  0  0  0  0  0  0  0  0  0  0
    7.4927    0.0934   21.6985 C   0  0  0  0  0  0  0  0  0  0  0  0
    8.9150   -0.3554   21.8593 C   0  0  0  0  0  0  0  0  0  0  0  0
    9.2237   -0.4004   23.3265 N   0  0  0  0  0  0  0  0  0  0  0  0
    7.9923    0.0205   24.0724 C   0  0  0  0  0  0  0  0  0  0  0  0
    7.8549    0.1190   25.5629 O   0  0  0  0  0  0  0  0  0  0  0  0
    5.9575    0.5934   21.9494 C   0  0  0  0  0  0  0  0  0  0  0  0
    6.3877    0.4037   20.5250 C   0  0  0  0  0  0  0  0  0  0  0  0
    5.4227    0.6714   19.4083 C   0  0  0  0  0  0  0  0  0  0  0  0
    5.8529    0.4817   17.9838 Cl  0  0  0  0  0  0  0  0  0  0  0  0
    4.0276    1.1286   19.7159 C   0  0  0  0  0  0  0  0  0  0  0  0
    3.5975    1.3182   21.1403 C   0  0  0  0  0  0  0  0  0  0  0  0
    4.5624    1.0506   22.2571 C   0  0  0  0  0  0  0  0  0  0  0  0
    4.1323    1.2402   23.6816 C   0  0  0  0  0  0  0  0  0  0  0  0
    2.7372    1.6975   23.9892 O   0  0  0  0  0  0  0  0  0  0  0  0
   10.5339   -0.7968   23.9400 C   0  0  0  0  0  0  0  0  0  0  0  0
   11.7501    0.0546   23.7265 C   0  0  0  0  0  0  0  0  0  0  0  0
   13.0602   -0.3417   24.3401 N   0  0  0  0  0  0  0  0  0  0  0  0
   13.1540   -1.5896   25.1671 C   0  0  0  0  0  0  0  0  0  0  0  0
   11.9377   -2.4411   25.3806 C   0  0  0  0  0  0  0  0  0  0  0  0
   12.0316   -3.6891   26.2076 C   0  0  0  0  0  0  0  0  0  0  0  0
   10.8152   -4.5405   26.4210 C   0  0  0  0  0  0  0  0  0  0  0  0
    9.5052   -4.1441   25.8075 C   0  0  0  0  0  0  0  0  0  0  0  0
    9.4114   -2.8962   24.9805 C   0  0  0  0  0  0  0  0  0  0  0  0
   10.6276   -2.0447   24.7670 C   0  0  0  0  0  0  0  0  0  0  0  0
    4.6671    1.1622   26.2228 C   0  0  0  0  0  0  0  0  0  0  0  0
    5.6131   -2.9885   29.3466 C   0  0  0  0  0  0  0  0  0  0  0  0
    4.9016   -1.9379   28.5467 N   0  0  0  0  0  0  0  0  0  0  0  0
    3.4152   -1.7915   28.4078 C   0  0  0  0  0  0  0  0  0  0  0  0
    3.1465   -0.6124   27.5203 C   0  0  0  0  0  0  0  0  0  0  0  0
    4.4667   -0.0300   27.1108 C   0  0  0  0  0  0  0  0  0  0  0  0
    5.5515   -0.8493   27.7451 N   0  0  0  0  0  0  0  0  0  0  0  0
 29 30  1  0  0  0
 30 31  1  0  0  0
 31 32  2  0  0  0
 32 33  1  0  0  0
 33 28  1  0  0  0
 28  1  1  0  0  0
  1  2  1  0  0  0
  3  2  1  0  0  0
  3  4  1  0  0  0
  4  5  1  0  0  0
  5  6  1  0  0  0
  6 18  1  0  0  0
 18 19  2  0  0  0
 19 20  1  0  0  0
 20 21  2  0  0  0
 21 22  1  0  0  0
 22 23  2  0  0  0
 23 24  1  0  0  0
 24 25  2  0  0  0
 25 26  1  0  0  0
 26 27  2  0  0  0
  6  7  1  0  0  0
  7  8  2  0  0  0
  3  9  1  0  0  0
  9 10  2  0  0  0
 10 11  1  0  0  0
 11 12  1  0  0  0
 11 13  2  0  0  0
 13 14  1  0  0  0
 14 15  2  0  0  0
 15 16  1  0  0  0
 16 17  2  0  0  0
 33 34  2  0  0  0
 34 30  1  0  0  0
 16  1  1  0  0  0
  7  3  1  0  0  0
 15  9  1  0  0  0
 27 18  1  0  0  0
 27 22  1  0  0  0
M  END
> <minimizedAffinity>
-7.90829

> <CNNscore>
0.2716126442

> <CNNaffinity>
6.3717856407

> <CNN_VS>
1.7306575775

> <CNNaffinity_variance>
0.1084122285

$$$$



 34 39  0  0  0  0  0  0  0  0999 V2000
    4.6048    1.7458   23.5704 N   0  0  0  0  0  0  0  0  0  0  0  0
    5.9667    1.1662   23.8137 C   0  0  0  0  0  0  0  0  0  0  0  0
    6.1447    0.0640   24.8154 C   0  0  0  0  0  0  0  0  0  0  0  0
    6.4755   -1.0356   25.7804 C   0  0  0  0  0  0  0  0  0  0  0  0
    7.9502   -1.2970   25.6979 C   0  0  0  0  0  0  0  0  0  0  0  0
    8.5310   -0.3588   24.6817 N   0  0  0  0  0  0  0  0  0  0  0  0
    7.4151    0.4823   24.1363 C   0  0  0  0  0  0  0  0  0  0  0  0
    7.5466    1.5536   23.0947 O   0  0  0  0  0  0  0  0  0  0  0  0
    4.9608   -0.4587   25.5738 C   0  0  0  0  0  0  0  0  0  0  0  0
    5.1388   -1.5609   26.5754 C   0  0  0  0  0  0  0  0  0  0  0  0
    3.9549   -2.0836   27.3338 C   0  0  0  0  0  0  0  0  0  0  0  0
    4.1329   -3.1859   28.3355 Cl  0  0  0  0  0  0  0  0  0  0  0  0
    2.5930   -1.5040   27.0904 C   0  0  0  0  0  0  0  0  0  0  0  0
    2.4149   -0.4018   26.0888 C   0  0  0  0  0  0  0  0  0  0  0  0
    3.5988    0.1209   25.3305 C   0  0  0  0  0  0  0  0  0  0  0  0
    3.4209    1.2232   24.3288 C   0  0  0  0  0  0  0  0  0  0  0  0
    2.0589    1.8027   24.0855 O   0  0  0  0  0  0  0  0  0  0  0  0
    9.9742   -0.2763   24.2812 C   0  0  0  0  0  0  0  0  0  0  0  0
   10.4091    0.7162   23.2442 C   0  0  0  0  0  0  0  0  0  0  0  0
   11.8523    0.7988   22.8437 N   0  0  0  0  0  0  0  0  0  0  0  0
   12.8605   -0.1112   23.4804 C   0  0  0  0  0  0  0  0  0  0  0  0
   12.4255   -1.1037   24.5175 C   0  0  0  0  0  0  0  0  0  0  0  0
   13.4338   -2.0138   25.1542 C   0  0  0  0  0  0  0  0  0  0  0  0
   12.9988   -3.0063   26.1914 C   0  0  0  0  0  0  0  0  0  0  0  0
   11.5556   -3.0888   26.5917 C   0  0  0  0  0  0  0  0  0  0  0  0
   10.5474   -2.1788   25.9551 C   0  0  0  0  0  0  0  0  0  0  0  0
   10.9823   -1.1863   24.9180 C   0  0  0  0  0  0  0  0  0  0  0  0
    4.4268    2.8481   22.5687 C   0  0  0  0  0  0  0  0  0  0  0  0
    4.7824    0.8401   17.6982 C   0  0  0  0  0  0  0  0  0  0  0  0
    4.2916    1.5956   18.8974 N   0  0  0  0  0  0  0  0  0  0  0  0
    3.0453    2.4276   18.9659 C   0  0  0  0  0  0  0  0  0  0  0  0
    2.9443    2.9981   20.3495 C   0  0  0  0  0  0  0  0  0  0  0  0
    4.1281    2.5186   21.1362 C   0  0  0  0  0  0  0  0  0  0  0  0
    4.9608    1.6518   20.2387 N   0  0  0  0  0  0  0  0  0  0  0  0
 29 30  1  0  0  0
 30 31  1  0  0  0
 31 32  2  0  0  0
 32 33  1  0  0  0
 33 28  1  0  0  0
 28  1  1  0  0  0
  1  2  1  0  0  0
  3  2  1  0  0  0
  3  4  1  0  0  0
  4  5  1  0  0  0
  5  6  1  0  0  0
  6 18  1  0  0  0
 18 19  2  0  0  0
 19 20  1  0  0  0
 20 21  2  0  0  0
 21 22  1  0  0  0
 22 23  2  0  0  0
 23 24  1  0  0  0
 24 25  2  0  0  0
 25 26  1  0  0  0
 26 27  2  0  0  0
  6  7  1  0  0  0
  7  8  2  0  0  0
  3  9  1  0  0  0
  9 10  2  0  0  0
 10 11  1  0  0  0
 11 12  1  0  0  0
 11 13  2  0  0  0
 13 14  1  0  0  0
 14 15  2  0  0  0
 15 16  1  0  0  0
 16 17  2  0  0  0
 33 34  2  0  0  0
 34 30  1  0  0  0
 16  1  1  0  0  0
  7  3  1  0  0  0
 15  9  1  0  0  0
 27 18  1  0  0  0
 27 22  1  0  0  0
M  END
> <minimizedAffinity>
-7.60833

> <CNNscore>
0.2452082336

> <CNNaffinity>
6.2453556061

> <CNN_VS>
1.5314126015

> <CNNaffinity_variance>
0.1418177336

$$$$
