


 34 39  0  0  0  0  0  0  0  0999 V2000
   -9.5402   -2.6315  -24.2392 N   0  0  0  0  0  0  0  0  0  0  0  0
   -8.4925   -2.3899  -23.1932 C   0  0  0  0  0  0  0  0  0  0  0  0
   -7.3902   -3.3870  -22.9915 C   0  0  0  0  0  0  0  0  0  0  0  0
   -6.2340   -4.2893  -22.6768 C   0  0  0  0  0  0  0  0  0  0  0  0
   -5.4439   -3.6606  -21.5674 C   0  0  0  0  0  0  0  0  0  0  0  0
   -6.1119   -2.3698  -21.1965 N   0  0  0  0  0  0  0  0  0  0  0  0
   -7.3147   -2.2007  -22.0766 C   0  0  0  0  0  0  0  0  0  0  0  0
   -8.2737   -1.0477  -22.0470 O   0  0  0  0  0  0  0  0  0  0  0  0
   -7.3355   -4.6257  -23.8357 C   0  0  0  0  0  0  0  0  0  0  0  0
   -6.2332   -5.6228  -23.6340 C   0  0  0  0  0  0  0  0  0  0  0  0
   -6.1786   -6.8614  -24.4782 C   0  0  0  0  0  0  0  0  0  0  0  0
   -5.0763   -7.8586  -24.2765 Cl  0  0  0  0  0  0  0  0  0  0  0  0
   -7.2263   -7.1030  -25.5241 C   0  0  0  0  0  0  0  0  0  0  0  0
   -8.3286   -6.1059  -25.7259 C   0  0  0  0  0  0  0  0  0  0  0  0
   -8.3832   -4.8673  -24.8817 C   0  0  0  0  0  0  0  0  0  0  0  0
   -9.4856   -3.8701  -25.0834 C   0  0  0  0  0  0  0  0  0  0  0  0
  -10.5333   -4.1117  -26.1293 O   0  0  0  0  0  0  0  0  0  0  0  0
   -5.6569   -1.4156  -20.1323 C   0  0  0  0  0  0  0  0  0  0  0  0
   -6.1498   -1.5719  -18.7243 C   0  0  0  0  0  0  0  0  0  0  0  0
   -5.6949   -0.6178  -17.6601 N   0  0  0  0  0  0  0  0  0  0  0  0
   -4.7470    0.4927  -18.0040 C   0  0  0  0  0  0  0  0  0  0  0  0
   -4.2540    0.6490  -19.4120 C   0  0  0  0  0  0  0  0  0  0  0  0
   -3.3061    1.7596  -19.7559 C   0  0  0  0  0  0  0  0  0  0  0  0
   -2.8132    1.9158  -21.1640 C   0  0  0  0  0  0  0  0  0  0  0  0
   -3.2682    0.9617  -22.2281 C   0  0  0  0  0  0  0  0  0  0  0  0
   -4.2161   -0.1488  -21.8842 C   0  0  0  0  0  0  0  0  0  0  0  0
   -4.7090   -0.3051  -20.4762 C   0  0  0  0  0  0  0  0  0  0  0  0
  -10.6425   -1.6343  -24.4409 C   0  0  0  0  0  0  0  0  0  0  0  0
  -14.1870   -3.1704  -20.8411 C   0  0  0  0  0  0  0  0  0  0  0  0
  -13.5022   -2.3993  -21.9303 N   0  0  0  0  0  0  0  0  0  0  0  0
  -14.0306   -1.1683  -22.6052 C   0  0  0  0  0  0  0  0  0  0  0  0
  -13.0236   -0.7319  -23.6278 C   0  0  0  0  0  0  0  0  0  0  0  0
  -11.8729   -1.6932  -23.5849 C   0  0  0  0  0  0  0  0  0  0  0  0
  -12.1687   -2.7237  -22.5358 N   0  0  0  0  0  0  0  0  0  0  0  0
 29 30  1  0  0  0
 30 31  1  0  0  0
 31 32  2  0  0  0
 32 33  1  0  0  0
 33 28  1  0  0  0
 28  1  1  0  0  0
  1  2  1  0  0  0
  3  2  1  0  0  0
  3  4  1  0  0  0
  4  5  1  0  0  0
  5  6  1  0  0  0
  6 18  1  0  0  0
 18 19  2  0  0  0
 19 20  1  0  0  0
 20 21  2  0  0  0
 21 22  1  0  0  0
 22 23  2  0  0  0
 23 24  1  0  0  0
 24 25  2  0  0  0
 25 26  1  0  0  0
 26 27  2  0  0  0
  6  7  1  0  0  0
  7  8  2  0  0  0
  3  9  1  0  0  0
  9 10  2  0  0  0
 10 11  1  0  0  0
 11 12  1  0  0  0
 11 13  2  0  0  0
 13 14  1  0  0  0
 14 15  2  0  0  0
 15 16  1  0  0  0
 16 17  2  0  0  0
 33 34  2  0  0  0
 34 30  1  0  0  0
 16  1  1  0  0  0
  7  3  1  0  0  0
 15  9  1  0  0  0
 27 18  1  0  0  0
 27 22  1  0  0  0
M  END
> <minimizedAffinity>
-8.32973

> <CNNscore>
0.6462408304

> <CNNaffinity>
6.6793127060

> <CNN_VS>
4.3164443970

> <CNNaffinity_variance>
0.1430254877

$$$$



 34 39  0  0  0  0  0  0  0  0999 V2000
   -5.9847   -5.9407  -23.1489 N   0  0  0  0  0  0  0  0  0  0  0  0
   -6.0822   -4.6470  -22.3961 C   0  0  0  0  0  0  0  0  0  0  0  0
   -7.2221   -3.7088  -22.6617 C   0  0  0  0  0  0  0  0  0  0  0  0
   -8.2987   -2.6763  -22.8189 C   0  0  0  0  0  0  0  0  0  0  0  0
   -8.0022   -1.5497  -21.8739 C   0  0  0  0  0  0  0  0  0  0  0  0
   -6.7422   -1.8860  -21.1327 N   0  0  0  0  0  0  0  0  0  0  0  0
   -6.2602   -3.2204  -21.6195 C   0  0  0  0  0  0  0  0  0  0  0  0
   -5.0317   -3.9401  -21.1471 O   0  0  0  0  0  0  0  0  0  0  0  0
   -8.2645   -4.0644  -23.6801 C   0  0  0  0  0  0  0  0  0  0  0  0
   -9.4044   -3.1263  -23.9457 C   0  0  0  0  0  0  0  0  0  0  0  0
  -10.4467   -3.4820  -24.9640 C   0  0  0  0  0  0  0  0  0  0  0  0
  -11.5866   -2.5438  -25.2296 Cl  0  0  0  0  0  0  0  0  0  0  0  0
  -10.3491   -4.7757  -25.7167 C   0  0  0  0  0  0  0  0  0  0  0  0
   -9.2093   -5.7138  -25.4512 C   0  0  0  0  0  0  0  0  0  0  0  0
   -8.1670   -5.3582  -24.4329 C   0  0  0  0  0  0  0  0  0  0  0  0
   -7.0270   -6.2964  -24.1672 C   0  0  0  0  0  0  0  0  0  0  0  0
   -6.9295   -7.5901  -24.9200 O   0  0  0  0  0  0  0  0  0  0  0  0
   -6.0806   -1.0371  -20.0880 C   0  0  0  0  0  0  0  0  0  0  0  0
   -6.5942   -1.0458  -18.6787 C   0  0  0  0  0  0  0  0  0  0  0  0
   -5.9325   -0.1969  -17.6340 N   0  0  0  0  0  0  0  0  0  0  0  0
   -4.7572    0.6609  -17.9986 C   0  0  0  0  0  0  0  0  0  0  0  0
   -4.2436    0.6696  -19.4079 C   0  0  0  0  0  0  0  0  0  0  0  0
   -3.0682    1.5274  -19.7725 C   0  0  0  0  0  0  0  0  0  0  0  0
   -2.5547    1.5361  -21.1819 C   0  0  0  0  0  0  0  0  0  0  0  0
   -3.2164    0.6871  -22.2265 C   0  0  0  0  0  0  0  0  0  0  0  0
   -4.3917   -0.1706  -21.8619 C   0  0  0  0  0  0  0  0  0  0  0  0
   -4.9053   -0.1794  -20.4527 C   0  0  0  0  0  0  0  0  0  0  0  0
   -4.8447   -6.8789  -22.8833 C   0  0  0  0  0  0  0  0  0  0  0  0
    0.2269   -6.9447  -24.3513 C   0  0  0  0  0  0  0  0  0  0  0  0
   -1.2682   -6.8308  -24.3906 N   0  0  0  0  0  0  0  0  0  0  0  0
   -2.0979   -6.5294  -25.6033 C   0  0  0  0  0  0  0  0  0  0  0  0
   -3.5387   -6.5107  -25.1863 C   0  0  0  0  0  0  0  0  0  0  0  0
   -3.5994   -6.8006  -23.7158 C   0  0  0  0  0  0  0  0  0  0  0  0
   -2.1962   -6.9984  -23.2240 N   0  0  0  0  0  0  0  0  0  0  0  0
 29 30  1  0  0  0
 30 31  1  0  0  0
 31 32  2  0  0  0
 32 33  1  0  0  0
 33 28  1  0  0  0
 28  1  1  0  0  0
  1  2  1  0  0  0
  3  2  1  0  0  0
  3  4  1  0  0  0
  4  5  1  0  0  0
  5  6  1  0  0  0
  6 18  1  0  0  0
 18 19  2  0  0  0
 19 20  1  0  0  0
 20 21  2  0  0  0
 21 22  1  0  0  0
 22 23  2  0  0  0
 23 24  1  0  0  0
 24 25  2  0  0  0
 25 26  1  0  0  0
 26 27  2  0  0  0
  6  7  1  0  0  0
  7  8  2  0  0  0
  3  9  1  0  0  0
  9 10  2  0  0  0
 10 11  1  0  0  0
 11 12  1  0  0  0
 11 13  2  0  0  0
 13 14  1  0  0  0
 14 15  2  0  0  0
 15 16  1  0  0  0
 16 17  2  0  0  0
 33 34  2  0  0  0
 34 30  1  0  0  0
 16  1  1  0  0  0
  7  3  1  0  0  0
 15  9  1  0  0  0
 27 18  1  0  0  0
 27 22  1  0  0  0
M  END
> <minimizedAffinity>
-7.52611

> <CNNscore>
0.5165995955

> <CNNaffinity>
6.4728097916

> <CNN_VS>
3.3438508511

> <CNNaffinity_variance>
0.1101508141

$$$$



 34 39  0  0  0  0  0  0  0  0999 V2000
   -9.3927   -3.4005  -23.9433 N   0  0  0  0  0  0  0  0  0  0  0  0
   -9.8535   -1.9834  -23.7717 C   0  0  0  0  0  0  0  0  0  0  0  0
   -9.0816   -1.0449  -22.8923 C   0  0  0  0  0  0  0  0  0  0  0  0
   -8.4161    0.0028  -22.0500 C   0  0  0  0  0  0  0  0  0  0  0  0
   -9.2121    1.2685  -22.1701 C   0  0  0  0  0  0  0  0  0  0  0  0
  -10.3695    1.0031  -23.0865 N   0  0  0  0  0  0  0  0  0  0  0  0
  -10.2888   -0.4267  -23.5329 C   0  0  0  0  0  0  0  0  0  0  0  0
  -11.2472   -1.1170  -24.4575 O   0  0  0  0  0  0  0  0  0  0  0  0
   -7.8488   -1.5236  -22.1843 C   0  0  0  0  0  0  0  0  0  0  0  0
   -7.0769   -0.5852  -21.3049 C   0  0  0  0  0  0  0  0  0  0  0  0
   -5.8441   -1.0638  -20.5970 C   0  0  0  0  0  0  0  0  0  0  0  0
   -5.0722   -0.1254  -19.7175 Cl  0  0  0  0  0  0  0  0  0  0  0  0
   -5.3833   -2.4810  -20.7686 C   0  0  0  0  0  0  0  0  0  0  0  0
   -6.1552   -3.4194  -21.6480 C   0  0  0  0  0  0  0  0  0  0  0  0
   -7.3880   -2.9407  -22.3559 C   0  0  0  0  0  0  0  0  0  0  0  0
   -8.1599   -3.8791  -23.2354 C   0  0  0  0  0  0  0  0  0  0  0  0
   -7.6991   -5.2963  -23.4069 O   0  0  0  0  0  0  0  0  0  0  0  0
  -11.4226    1.9935  -23.4865 C   0  0  0  0  0  0  0  0  0  0  0  0
  -12.7694    1.9637  -22.8268 C   0  0  0  0  0  0  0  0  0  0  0  0
  -13.8225    2.9541  -23.2267 N   0  0  0  0  0  0  0  0  0  0  0  0
  -13.5288    3.9743  -24.2863 C   0  0  0  0  0  0  0  0  0  0  0  0
  -12.1820    4.0042  -24.9460 C   0  0  0  0  0  0  0  0  0  0  0  0
  -11.8884    5.0245  -26.0057 C   0  0  0  0  0  0  0  0  0  0  0  0
  -10.5415    5.0542  -26.6654 C   0  0  0  0  0  0  0  0  0  0  0  0
   -9.4884    4.0638  -26.2654 C   0  0  0  0  0  0  0  0  0  0  0  0
   -9.7821    3.0436  -25.2058 C   0  0  0  0  0  0  0  0  0  0  0  0
  -11.1289    3.0137  -24.5461 C   0  0  0  0  0  0  0  0  0  0  0  0
  -10.1647   -4.3389  -24.8228 C   0  0  0  0  0  0  0  0  0  0  0  0
   -6.5191   -5.7759  -28.3619 C   0  0  0  0  0  0  0  0  0  0  0  0
   -7.8140   -5.6629  -27.6133 N   0  0  0  0  0  0  0  0  0  0  0  0
   -9.0879   -6.3836  -27.9414 C   0  0  0  0  0  0  0  0  0  0  0  0
  -10.1235   -5.9754  -26.9359 C   0  0  0  0  0  0  0  0  0  0  0  0
   -9.4897   -5.0023  -25.9865 C   0  0  0  0  0  0  0  0  0  0  0  0
   -8.0622   -4.8092  -26.4052 N   0  0  0  0  0  0  0  0  0  0  0  0
 29 30  1  0  0  0
 30 31  1  0  0  0
 31 32  2  0  0  0
 32 33  1  0  0  0
 33 28  1  0  0  0
 28  1  1  0  0  0
  1  2  1  0  0  0
  3  2  1  0  0  0
  3  4  1  0  0  0
  4  5  1  0  0  0
  5  6  1  0  0  0
  6 18  1  0  0  0
 18 19  2  0  0  0
 19 20  1  0  0  0
 20 21  2  0  0  0
 21 22  1  0  0  0
 22 23  2  0  0  0
 23 24  1  0  0  0
 24 25  2  0  0  0
 25 26  1  0  0  0
 26 27  2  0  0  0
  6  7  1  0  0  0
  7  8  2  0  0  0
  3  9  1  0  0  0
  9 10  2  0  0  0
 10 11  1  0  0  0
 11 12  1  0  0  0
 11 13  2  0  0  0
 13 14  1  0  0  0
 14 15  2  0  0  0
 15 16  1  0  0  0
 16 17  2  0  0  0
 33 34  2  0  0  0
 34 30  1  0  0  0
 16  1  1  0  0  0
  7  3  1  0  0  0
 15  9  1  0  0  0
 27 18  1  0  0  0
 27 22  1  0  0  0
M  END
> <minimizedAffinity>
-8.56738

> <CNNscore>
0.4145684540

> <CNNaffinity>
6.2023992538

> <CNN_VS>
2.5713191032

> <CNNaffinity_variance>
0.2544575930

$$$$



 34 39  0  0  0  0  0  0  0  0999 V2000
  -10.0649   -2.9272  -23.6630 N   0  0  0  0  0  0  0  0  0  0  0  0
   -8.8978   -2.6025  -22.7785 C   0  0  0  0  0  0  0  0  0  0  0  0
   -7.6609   -3.4496  -22.8278 C   0  0  0  0  0  0  0  0  0  0  0  0
   -6.3645   -4.2017  -22.7671 C   0  0  0  0  0  0  0  0  0  0  0  0
   -5.4876   -3.5327  -21.7505 C   0  0  0  0  0  0  0  0  0  0  0  0
   -6.2420   -2.3671  -21.1829 N   0  0  0  0  0  0  0  0  0  0  0  0
   -7.5852   -2.3157  -21.8487 C   0  0  0  0  0  0  0  0  0  0  0  0
   -8.6633   -1.3075  -21.5822 O   0  0  0  0  0  0  0  0  0  0  0  0
   -7.5911   -4.6214  -23.7617 C   0  0  0  0  0  0  0  0  0  0  0  0
   -6.3542   -5.4685  -23.8110 C   0  0  0  0  0  0  0  0  0  0  0  0
   -6.2844   -6.6403  -24.7448 C   0  0  0  0  0  0  0  0  0  0  0  0
   -5.0475   -7.4874  -24.7941 Cl  0  0  0  0  0  0  0  0  0  0  0  0
   -7.4516   -6.9649  -25.6293 C   0  0  0  0  0  0  0  0  0  0  0  0
   -8.6885   -6.1179  -25.5800 C   0  0  0  0  0  0  0  0  0  0  0  0
   -8.7582   -4.9461  -24.6462 C   0  0  0  0  0  0  0  0  0  0  0  0
   -9.9952   -4.0989  -24.5968 C   0  0  0  0  0  0  0  0  0  0  0  0
  -11.1623   -4.4236  -25.4813 O   0  0  0  0  0  0  0  0  0  0  0  0
   -5.7412   -1.4193  -20.1337 C   0  0  0  0  0  0  0  0  0  0  0  0
   -6.1964   -1.5657  -18.7120 C   0  0  0  0  0  0  0  0  0  0  0  0
   -5.6956   -0.6179  -17.6628 N   0  0  0  0  0  0  0  0  0  0  0  0
   -4.7397    0.4763  -18.0353 C   0  0  0  0  0  0  0  0  0  0  0  0
   -4.2845    0.6227  -19.4571 C   0  0  0  0  0  0  0  0  0  0  0  0
   -3.3285    1.7170  -19.8297 C   0  0  0  0  0  0  0  0  0  0  0  0
   -2.8734    1.8634  -21.2514 C   0  0  0  0  0  0  0  0  0  0  0  0
   -3.3742    0.9156  -22.3006 C   0  0  0  0  0  0  0  0  0  0  0  0
   -4.3301   -0.1787  -21.9280 C   0  0  0  0  0  0  0  0  0  0  0  0
   -4.7853   -0.3251  -20.5063 C   0  0  0  0  0  0  0  0  0  0  0  0
  -11.3019   -2.0800  -23.6137 C   0  0  0  0  0  0  0  0  0  0  0  0
   -9.5364    2.7340  -24.8742 C   0  0  0  0  0  0  0  0  0  0  0  0
  -10.3850    1.6227  -24.3313 N   0  0  0  0  0  0  0  0  0  0  0  0
  -11.6836    1.7826  -23.5978 C   0  0  0  0  0  0  0  0  0  0  0  0
  -12.1851    0.4150  -23.2397 C   0  0  0  0  0  0  0  0  0  0  0  0
  -11.1965   -0.5901  -23.7519 C   0  0  0  0  0  0  0  0  0  0  0  0
  -10.0838    0.1563  -24.4265 N   0  0  0  0  0  0  0  0  0  0  0  0
 29 30  1  0  0  0
 30 31  1  0  0  0
 31 32  2  0  0  0
 32 33  1  0  0  0
 33 28  1  0  0  0
 28  1  1  0  0  0
  1  2  1  0  0  0
  3  2  1  0  0  0
  3  4  1  0  0  0
  4  5  1  0  0  0
  5  6  1  0  0  0
  6 18  1  0  0  0
 18 19  2  0  0  0
 19 20  1  0  0  0
 20 21  2  0  0  0
 21 22  1  0  0  0
 22 23  2  0  0  0
 23 24  1  0  0  0
 24 25  2  0  0  0
 25 26  1  0  0  0
 26 27  2  0  0  0
  6  7  1  0  0  0
  7  8  2  0  0  0
  3  9  1  0  0  0
  9 10  2  0  0  0
 10 11  1  0  0  0
 11 12  1  0  0  0
 11 13  2  0  0  0
 13 14  1  0  0  0
 14 15  2  0  0  0
 15 16  1  0  0  0
 16 17  2  0  0  0
 33 34  2  0  0  0
 34 30  1  0  0  0
 16  1  1  0  0  0
  7  3  1  0  0  0
 15  9  1  0  0  0
 27 18  1  0  0  0
 27 22  1  0  0  0
M  END
> <minimizedAffinity>
-9.02430

> <CNNscore>
0.3114287853

> <CNNaffinity>
6.0827679634

> <CNN_VS>
1.8943489790

> <CNNaffinity_variance>
0.2058949769

$$$$



 34 39  0  0  0  0  0  0  0  0999 V2000
   -9.1544   -2.5727  -23.4863 N   0  0  0  0  0  0  0  0  0  0  0  0
   -9.6400   -1.1572  -23.5899 C   0  0  0  0  0  0  0  0  0  0  0  0
   -8.8265   -0.0406  -23.0056 C   0  0  0  0  0  0  0  0  0  0  0  0
   -8.1251    1.1733  -22.4723 C   0  0  0  0  0  0  0  0  0  0  0  0
   -8.9638    2.3737  -22.7978 C   0  0  0  0  0  0  0  0  0  0  0  0
  -10.1835    1.9015  -23.5323 N   0  0  0  0  0  0  0  0  0  0  0  0
  -10.0986    0.4095  -23.6607 C   0  0  0  0  0  0  0  0  0  0  0  0
  -11.1086   -0.4769  -24.3273 O   0  0  0  0  0  0  0  0  0  0  0  0
   -7.5274   -0.3395  -22.3177 C   0  0  0  0  0  0  0  0  0  0  0  0
   -6.7139    0.7771  -21.7334 C   0  0  0  0  0  0  0  0  0  0  0  0
   -5.4149    0.4783  -21.0455 C   0  0  0  0  0  0  0  0  0  0  0  0
   -4.6013    1.5949  -20.4612 Cl  0  0  0  0  0  0  0  0  0  0  0  0
   -4.9294   -0.9372  -20.9419 C   0  0  0  0  0  0  0  0  0  0  0  0
   -5.7429   -2.0538  -21.5262 C   0  0  0  0  0  0  0  0  0  0  0  0
   -7.0419   -1.7549  -22.2141 C   0  0  0  0  0  0  0  0  0  0  0  0
   -7.8554   -2.8715  -22.7984 C   0  0  0  0  0  0  0  0  0  0  0  0
   -7.3699   -4.2870  -22.6948 O   0  0  0  0  0  0  0  0  0  0  0  0
  -11.2932    2.7691  -24.0478 C   0  0  0  0  0  0  0  0  0  0  0  0
  -12.6535    2.6991  -23.4198 C   0  0  0  0  0  0  0  0  0  0  0  0
  -13.7632    3.5667  -23.9353 N   0  0  0  0  0  0  0  0  0  0  0  0
  -13.5125    4.5043  -25.0790 C   0  0  0  0  0  0  0  0  0  0  0  0
  -12.1521    4.5744  -25.7071 C   0  0  0  0  0  0  0  0  0  0  0  0
  -11.9015    5.5121  -26.8508 C   0  0  0  0  0  0  0  0  0  0  0  0
  -10.5411    5.5821  -27.4788 C   0  0  0  0  0  0  0  0  0  0  0  0
   -9.4315    4.7145  -26.9632 C   0  0  0  0  0  0  0  0  0  0  0  0
   -9.6821    3.7768  -25.8196 C   0  0  0  0  0  0  0  0  0  0  0  0
  -11.0424    3.7068  -25.1915 C   0  0  0  0  0  0  0  0  0  0  0  0
   -9.9680   -3.6893  -24.0706 C   0  0  0  0  0  0  0  0  0  0  0  0
   -6.8127   -5.4964  -27.8994 C   0  0  0  0  0  0  0  0  0  0  0  0
   -8.0117   -5.2700  -27.0270 N   0  0  0  0  0  0  0  0  0  0  0  0
   -9.3552   -5.9170  -27.1895 C   0  0  0  0  0  0  0  0  0  0  0  0
  -10.2515   -5.4037  -26.1018 C   0  0  0  0  0  0  0  0  0  0  0  0
   -9.4621   -4.4393  -25.2671 C   0  0  0  0  0  0  0  0  0  0  0  0
   -8.0777   -4.3567  -25.8389 N   0  0  0  0  0  0  0  0  0  0  0  0
 29 30  1  0  0  0
 30 31  1  0  0  0
 31 32  2  0  0  0
 32 33  1  0  0  0
 33 28  1  0  0  0
 28  1  1  0  0  0
  1  2  1  0  0  0
  3  2  1  0  0  0
  3  4  1  0  0  0
  4  5  1  0  0  0
  5  6  1  0  0  0
  6 18  1  0  0  0
 18 19  2  0  0  0
 19 20  1  0  0  0
 20 21  2  0  0  0
 21 22  1  0  0  0
 22 23  2  0  0  0
 23 24  1  0  0  0
 24 25  2  0  0  0
 25 26  1  0  0  0
 26 27  2  0  0  0
  6  7  1  0  0  0
  7  8  2  0  0  0
  3  9  1  0  0  0
  9 10  2  0  0  0
 10 11  1  0  0  0
 11 12  1  0  0  0
 11 13  2  0  0  0
 13 14  1  0  0  0
 14 15  2  0  0  0
 15 16  1  0  0  0
 16 17  2  0  0  0
 33 34  2  0  0  0
 34 30  1  0  0  0
 16  1  1  0  0  0
  7  3  1  0  0  0
 15  9  1  0  0  0
 27 18  1  0  0  0
 27 22  1  0  0  0
M  END
> <minimizedAffinity>
-7.67500

> <CNNscore>
0.2657225430

> <CNNaffinity>
6.1004524231

> <CNN_VS>
1.6210277081

> <CNNaffinity_variance>
0.1589069664

$$$$



 34 39  0  0  0  0  0  0  0  0999 V2000
  -10.4725    0.2377  -23.0088 N   0  0  0  0  0  0  0  0  0  0  0  0
   -9.0440    0.1380  -22.5621 C   0  0  0  0  0  0  0  0  0  0  0  0
   -8.2518   -1.1019  -22.8536 C   0  0  0  0  0  0  0  0  0  0  0  0
   -7.3393   -2.2722  -23.0720 C   0  0  0  0  0  0  0  0  0  0  0  0
   -6.0086   -1.9423  -22.4635 C   0  0  0  0  0  0  0  0  0  0  0  0
   -6.0986   -0.5681  -21.8689 N   0  0  0  0  0  0  0  0  0  0  0  0
   -7.4850   -0.0487  -22.1101 C   0  0  0  0  0  0  0  0  0  0  0  0
   -8.0120    1.2890  -21.6827 O   0  0  0  0  0  0  0  0  0  0  0  0
   -8.8881   -2.2422  -23.5919 C   0  0  0  0  0  0  0  0  0  0  0  0
   -8.0959   -3.4821  -23.8834 C   0  0  0  0  0  0  0  0  0  0  0  0
   -8.7321   -4.6223  -24.6216 C   0  0  0  0  0  0  0  0  0  0  0  0
   -7.9399   -5.8623  -24.9131 Cl  0  0  0  0  0  0  0  0  0  0  0  0
  -10.1606   -4.5226  -25.0683 C   0  0  0  0  0  0  0  0  0  0  0  0
  -10.9528   -3.2828  -24.7768 C   0  0  0  0  0  0  0  0  0  0  0  0
  -10.3165   -2.1425  -24.0386 C   0  0  0  0  0  0  0  0  0  0  0  0
  -11.1087   -0.9025  -23.7470 C   0  0  0  0  0  0  0  0  0  0  0  0
  -12.5372   -0.8029  -24.1937 O   0  0  0  0  0  0  0  0  0  0  0  0
   -4.9959    0.1590  -21.1581 C   0  0  0  0  0  0  0  0  0  0  0  0
   -5.1269    0.4776  -19.6983 C   0  0  0  0  0  0  0  0  0  0  0  0
   -4.0242    1.2048  -18.9874 N   0  0  0  0  0  0  0  0  0  0  0  0
   -2.7905    1.6132  -19.7365 C   0  0  0  0  0  0  0  0  0  0  0  0
   -2.6595    1.2945  -21.1964 C   0  0  0  0  0  0  0  0  0  0  0  0
   -1.4257    1.7030  -21.9455 C   0  0  0  0  0  0  0  0  0  0  0  0
   -1.2948    1.3843  -23.4054 C   0  0  0  0  0  0  0  0  0  0  0  0
   -2.3975    0.6572  -24.1161 C   0  0  0  0  0  0  0  0  0  0  0  0
   -3.6312    0.2487  -23.3671 C   0  0  0  0  0  0  0  0  0  0  0  0
   -3.7622    0.5674  -21.9072 C   0  0  0  0  0  0  0  0  0  0  0  0
  -11.2647    1.4777  -22.7172 C   0  0  0  0  0  0  0  0  0  0  0  0
  -13.2730    5.0893  -26.0041 C   0  0  0  0  0  0  0  0  0  0  0  0
  -12.3035    4.2151  -25.2654 N   0  0  0  0  0  0  0  0  0  0  0  0
  -10.8133    4.2104  -25.4365 C   0  0  0  0  0  0  0  0  0  0  0  0
  -10.2428    3.1844  -24.5027 C   0  0  0  0  0  0  0  0  0  0  0  0
  -11.3804    2.5549  -23.7546 C   0  0  0  0  0  0  0  0  0  0  0  0
  -12.6541    3.1919  -24.2260 N   0  0  0  0  0  0  0  0  0  0  0  0
 29 30  1  0  0  0
 30 31  1  0  0  0
 31 32  2  0  0  0
 32 33  1  0  0  0
 33 28  1  0  0  0
 28  1  1  0  0  0
  1  2  1  0  0  0
  3  2  1  0  0  0
  3  4  1  0  0  0
  4  5  1  0  0  0
  5  6  1  0  0  0
  6 18  1  0  0  0
 18 19  2  0  0  0
 19 20  1  0  0  0
 20 21  2  0  0  0
 21 22  1  0  0  0
 22 23  2  0  0  0
 23 24  1  0  0  0
 24 25  2  0  0  0
 25 26  1  0  0  0
 26 27  2  0  0  0
  6  7  1  0  0  0
  7  8  2  0  0  0
  3  9  1  0  0  0
  9 10  2  0  0  0
 10 11  1  0  0  0
 11 12  1  0  0  0
 11 13  2  0  0  0
 13 14  1  0  0  0
 14 15  2  0  0  0
 15 16  1  0  0  0
 16 17  2  0  0  0
 33 34  2  0  0  0
 34 30  1  0  0  0
 16  1  1  0  0  0
  7  3  1  0  0  0
 15  9  1  0  0  0
 27 18  1  0  0  0
 27 22  1  0  0  0
M  END
> <minimizedAffinity>
-8.38637

> <CNNscore>
0.1993900537

> <CNNaffinity>
6.0479402542

> <CNN_VS>
1.2058991194

> <CNNaffinity_variance>
0.1004731879

$$$$



 34 39  0  0  0  0  0  0  0  0999 V2000
   -8.3118   -1.8598  -22.4771 N   0  0  0  0  0  0  0  0  0  0  0  0
   -8.9722   -0.5564  -22.8161 C   0  0  0  0  0  0  0  0  0  0  0  0
   -8.1804    0.7170  -22.7810 C   0  0  0  0  0  0  0  0  0  0  0  0
   -7.5204    2.0640  -22.7892 C   0  0  0  0  0  0  0  0  0  0  0  0
   -8.5489    3.0818  -23.1846 C   0  0  0  0  0  0  0  0  0  0  0  0
   -9.8445    2.3639  -23.4208 N   0  0  0  0  0  0  0  0  0  0  0  0
   -9.6168    0.9024  -23.1714 C   0  0  0  0  0  0  0  0  0  0  0  0
  -10.6450   -0.1832  -23.2913 O   0  0  0  0  0  0  0  0  0  0  0  0
   -6.7280    0.6871  -22.4069 C   0  0  0  0  0  0  0  0  0  0  0  0
   -5.9362    1.9606  -22.3719 C   0  0  0  0  0  0  0  0  0  0  0  0
   -4.4839    1.9306  -21.9978 C   0  0  0  0  0  0  0  0  0  0  0  0
   -3.6920    3.2041  -21.9627 Cl  0  0  0  0  0  0  0  0  0  0  0  0
   -3.8235    0.6272  -21.6588 C   0  0  0  0  0  0  0  0  0  0  0  0
   -4.6153   -0.6463  -21.6939 C   0  0  0  0  0  0  0  0  0  0  0  0
   -6.0676   -0.6163  -22.0680 C   0  0  0  0  0  0  0  0  0  0  0  0
   -6.8595   -1.8898  -22.1031 C   0  0  0  0  0  0  0  0  0  0  0  0
   -6.1991   -3.1932  -21.7641 O   0  0  0  0  0  0  0  0  0  0  0  0
  -11.1404    2.9963  -23.8339 C   0  0  0  0  0  0  0  0  0  0  0  0
  -12.3402    2.9014  -22.9387 C   0  0  0  0  0  0  0  0  0  0  0  0
  -13.6361    3.5339  -23.3518 N   0  0  0  0  0  0  0  0  0  0  0  0
  -13.7321    4.2613  -24.6601 C   0  0  0  0  0  0  0  0  0  0  0  0
  -12.5322    4.3562  -25.5553 C   0  0  0  0  0  0  0  0  0  0  0  0
  -12.6283    5.0837  -26.8637 C   0  0  0  0  0  0  0  0  0  0  0  0
  -11.4284    5.1786  -27.7588 C   0  0  0  0  0  0  0  0  0  0  0  0
  -10.1326    4.5461  -27.3456 C   0  0  0  0  0  0  0  0  0  0  0  0
  -10.0366    3.8187  -26.0374 C   0  0  0  0  0  0  0  0  0  0  0  0
  -11.2363    3.7237  -25.1422 C   0  0  0  0  0  0  0  0  0  0  0  0
   -9.1037   -3.1333  -22.5122 C   0  0  0  0  0  0  0  0  0  0  0  0
   -8.2670   -6.6500  -26.3611 C   0  0  0  0  0  0  0  0  0  0  0  0
   -8.8452   -5.5194  -25.5627 N   0  0  0  0  0  0  0  0  0  0  0  0
  -10.0025   -4.6554  -25.9678 C   0  0  0  0  0  0  0  0  0  0  0  0
  -10.2402   -3.6564  -24.8744 C   0  0  0  0  0  0  0  0  0  0  0  0
   -9.2298   -3.9030  -23.7935 C   0  0  0  0  0  0  0  0  0  0  0  0
   -8.3676   -5.0545  -24.2189 N   0  0  0  0  0  0  0  0  0  0  0  0
 29 30  1  0  0  0
 30 31  1  0  0  0
 31 32  2  0  0  0
 32 33  1  0  0  0
 33 28  1  0  0  0
 28  1  1  0  0  0
  1  2  1  0  0  0
  3  2  1  0  0  0
  3  4  1  0  0  0
  4  5  1  0  0  0
  5  6  1  0  0  0
  6 18  1  0  0  0
 18 19  2  0  0  0
 19 20  1  0  0  0
 20 21  2  0  0  0
 21 22  1  0  0  0
 22 23  2  0  0  0
 23 24  1  0  0  0
 24 25  2  0  0  0
 25 26  1  0  0  0
 26 27  2  0  0  0
  6  7  1  0  0  0
  7  8  2  0  0  0
  3  9  1  0  0  0
  9 10  2  0  0  0
 10 11  1  0  0  0
 11 12  1  0  0  0
 11 13  2  0  0  0
 13 14  1  0  0  0
 14 15  2  0  0  0
 15 16  1  0  0  0
 16 17  2  0  0  0
 33 34  2  0  0  0
 34 30  1  0  0  0
 16  1  1  0  0  0
  7  3  1  0  0  0
 15  9  1  0  0  0
 27 18  1  0  0  0
 27 22  1  0  0  0
M  END
> <minimizedAffinity>
-7.76606

> <CNNscore>
0.1938233525

> <CNNaffinity>
6.0699539185

> <CNN_VS>
1.1764987707

> <CNNaffinity_variance>
0.1357281208

$$$$



 34 39  0  0  0  0  0  0  0  0999 V2000
   -7.5857   -0.7069  -26.1319 N   0  0  0  0  0  0  0  0  0  0  0  0
   -7.1670   -0.8489  -24.6985 C   0  0  0  0  0  0  0  0  0  0  0  0
   -7.1435   -2.2035  -24.0547 C   0  0  0  0  0  0  0  0  0  0  0  0
   -7.0711   -3.4861  -23.2803 C   0  0  0  0  0  0  0  0  0  0  0  0
   -6.6065   -3.1632  -21.8911 C   0  0  0  0  0  0  0  0  0  0  0  0
   -6.3918   -1.6810  -21.8069 N   0  0  0  0  0  0  0  0  0  0  0  0
   -6.7237   -1.0879  -23.1441 C   0  0  0  0  0  0  0  0  0  0  0  0
   -6.6489    0.3656  -23.5070 O   0  0  0  0  0  0  0  0  0  0  0  0
   -7.5389   -3.4161  -24.8443 C   0  0  0  0  0  0  0  0  0  0  0  0
   -7.5154   -4.7707  -24.2005 C   0  0  0  0  0  0  0  0  0  0  0  0
   -7.9107   -5.9833  -24.9901 C   0  0  0  0  0  0  0  0  0  0  0  0
   -7.8873   -7.3379  -24.3463 Cl  0  0  0  0  0  0  0  0  0  0  0  0
   -8.3295   -5.8412  -26.4234 C   0  0  0  0  0  0  0  0  0  0  0  0
   -8.3529   -4.4866  -27.0672 C   0  0  0  0  0  0  0  0  0  0  0  0
   -7.9576   -3.2741  -26.2777 C   0  0  0  0  0  0  0  0  0  0  0  0
   -7.9810   -1.9194  -26.9214 C   0  0  0  0  0  0  0  0  0  0  0  0
   -8.3998   -1.7774  -28.3548 O   0  0  0  0  0  0  0  0  0  0  0  0
   -5.9268   -0.9247  -20.5979 C   0  0  0  0  0  0  0  0  0  0  0  0
   -6.6828   -1.0359  -19.3072 C   0  0  0  0  0  0  0  0  0  0  0  0
   -6.2178   -0.2796  -18.0981 N   0  0  0  0  0  0  0  0  0  0  0  0
   -4.9969    0.5879  -18.1799 C   0  0  0  0  0  0  0  0  0  0  0  0
   -4.2409    0.6990  -19.4707 C   0  0  0  0  0  0  0  0  0  0  0  0
   -3.0198    1.5666  -19.5524 C   0  0  0  0  0  0  0  0  0  0  0  0
   -2.2639    1.6776  -20.8432 C   0  0  0  0  0  0  0  0  0  0  0  0
   -2.7289    0.9214  -22.0522 C   0  0  0  0  0  0  0  0  0  0  0  0
   -3.9498    0.0539  -21.9704 C   0  0  0  0  0  0  0  0  0  0  0  0
   -4.7058   -0.0573  -20.6797 C   0  0  0  0  0  0  0  0  0  0  0  0
   -7.6091    0.6478  -26.7756 C   0  0  0  0  0  0  0  0  0  0  0  0
  -11.3543    3.1217  -23.9945 C   0  0  0  0  0  0  0  0  0  0  0  0
  -10.2921    2.8292  -25.0124 N   0  0  0  0  0  0  0  0  0  0  0  0
   -9.8083    3.7688  -26.0769 C   0  0  0  0  0  0  0  0  0  0  0  0
   -8.7444    3.0660  -26.8669 C   0  0  0  0  0  0  0  0  0  0  0  0
   -8.5706    1.6921  -26.2908 C   0  0  0  0  0  0  0  0  0  0  0  0
   -9.5272    1.5456  -25.1446 N   0  0  0  0  0  0  0  0  0  0  0  0
 29 30  1  0  0  0
 30 31  1  0  0  0
 31 32  2  0  0  0
 32 33  1  0  0  0
 33 28  1  0  0  0
 28  1  1  0  0  0
  1  2  1  0  0  0
  3  2  1  0  0  0
  3  4  1  0  0  0
  4  5  1  0  0  0
  5  6  1  0  0  0
  6 18  1  0  0  0
 18 19  2  0  0  0
 19 20  1  0  0  0
 20 21  2  0  0  0
 21 22  1  0  0  0
 22 23  2  0  0  0
 23 24  1  0  0  0
 24 25  2  0  0  0
 25 26  1  0  0  0
 26 27  2  0  0  0
  6  7  1  0  0  0
  7  8  2  0  0  0
  3  9  1  0  0  0
  9 10  2  0  0  0
 10 11  1  0  0  0
 11 12  1  0  0  0
 11 13  2  0  0  0
 13 14  1  0  0  0
 14 15  2  0  0  0
 15 16  1  0  0  0
 16 17  2  0  0  0
 33 34  2  0  0  0
 34 30  1  0  0  0
 16  1  1  0  0  0
  7  3  1  0  0  0
 15  9  1  0  0  0
 27 18  1  0  0  0
 27 22  1  0  0  0
M  END
> <minimizedAffinity>
-8.02313

> <CNNscore>
0.1686468720

> <CNNaffinity>
6.0966796875

> <CNN_VS>
1.0281859636

> <CNNaffinity_variance>
0.0422125645

$$$$



 34 39  0  0  0  0  0  0  0  0999 V2000
   -6.7203   -1.7308  -20.8357 N   0  0  0  0  0  0  0  0  0  0  0  0
   -7.8960   -1.1866  -21.5918 C   0  0  0  0  0  0  0  0  0  0  0  0
   -8.5448   -2.0108  -22.6640 C   0  0  0  0  0  0  0  0  0  0  0  0
   -9.2928   -2.7152  -23.7569 C   0  0  0  0  0  0  0  0  0  0  0  0
  -10.3892   -1.8064  -24.2284 C   0  0  0  0  0  0  0  0  0  0  0  0
  -10.3187   -0.5405  -23.4269 N   0  0  0  0  0  0  0  0  0  0  0  0
   -9.1788   -0.6668  -22.4601 C   0  0  0  0  0  0  0  0  0  0  0  0
   -8.7485    0.3691  -21.4642 O   0  0  0  0  0  0  0  0  0  0  0  0
   -8.0180   -3.3793  -22.9800 C   0  0  0  0  0  0  0  0  0  0  0  0
   -8.6669   -4.2036  -24.0522 C   0  0  0  0  0  0  0  0  0  0  0  0
   -8.1401   -5.5720  -24.3682 C   0  0  0  0  0  0  0  0  0  0  0  0
   -8.7889   -6.3963  -25.4404 Cl  0  0  0  0  0  0  0  0  0  0  0  0
   -6.9644   -6.1162  -23.6120 C   0  0  0  0  0  0  0  0  0  0  0  0
   -6.3156   -5.2919  -22.5399 C   0  0  0  0  0  0  0  0  0  0  0  0
   -6.8424   -3.9235  -22.2239 C   0  0  0  0  0  0  0  0  0  0  0  0
   -6.1935   -3.0992  -21.1517 C   0  0  0  0  0  0  0  0  0  0  0  0
   -5.0179   -3.6433  -20.3955 O   0  0  0  0  0  0  0  0  0  0  0  0
  -11.2283    0.6439  -23.5675 C   0  0  0  0  0  0  0  0  0  0  0  0
  -12.6736    0.5294  -23.1829 C   0  0  0  0  0  0  0  0  0  0  0  0
  -13.5833    1.7137  -23.3236 N   0  0  0  0  0  0  0  0  0  0  0  0
  -13.0476    3.0126  -23.8488 C   0  0  0  0  0  0  0  0  0  0  0  0
  -11.6022    3.1272  -24.2334 C   0  0  0  0  0  0  0  0  0  0  0  0
  -11.0666    4.4261  -24.7587 C   0  0  0  0  0  0  0  0  0  0  0  0
   -9.6212    4.5406  -25.1433 C   0  0  0  0  0  0  0  0  0  0  0  0
   -8.7116    3.3562  -25.0026 C   0  0  0  0  0  0  0  0  0  0  0  0
   -9.2473    2.0573  -24.4774 C   0  0  0  0  0  0  0  0  0  0  0  0
  -10.6926    1.9428  -24.0928 C   0  0  0  0  0  0  0  0  0  0  0  0
   -6.0715   -0.9064  -19.7635 C   0  0  0  0  0  0  0  0  0  0  0  0
   -2.0423    1.3108  -22.3578 C   0  0  0  0  0  0  0  0  0  0  0  0
   -3.0296    0.9657  -21.2825 N   0  0  0  0  0  0  0  0  0  0  0  0
   -3.0716    1.5527  -19.9028 C   0  0  0  0  0  0  0  0  0  0  0  0
   -4.2163    0.9228  -19.1658 C   0  0  0  0  0  0  0  0  0  0  0  0
   -4.8816   -0.0534  -20.0901 C   0  0  0  0  0  0  0  0  0  0  0  0
   -4.1482   -0.0269  -21.3983 N   0  0  0  0  0  0  0  0  0  0  0  0
 29 30  1  0  0  0
 30 31  1  0  0  0
 31 32  2  0  0  0
 32 33  1  0  0  0
 33 28  1  0  0  0
 28  1  1  0  0  0
  1  2  1  0  0  0
  3  2  1  0  0  0
  3  4  1  0  0  0
  4  5  1  0  0  0
  5  6  1  0  0  0
  6 18  1  0  0  0
 18 19  2  0  0  0
 19 20  1  0  0  0
 20 21  2  0  0  0
 21 22  1  0  0  0
 22 23  2  0  0  0
 23 24  1  0  0  0
 24 25  2  0  0  0
 25 26  1  0  0  0
 26 27  2  0  0  0
  6  7  1  0  0  0
  7  8  2  0  0  0
  3  9  1  0  0  0
  9 10  2  0  0  0
 10 11  1  0  0  0
 11 12  1  0  0  0
 11 13  2  0  0  0
 13 14  1  0  0  0
 14 15  2  0  0  0
 15 16  1  0  0  0
 16 17  2  0  0  0
 33 34  2  0  0  0
 34 30  1  0  0  0
 16  1  1  0  0  0
  7  3  1  0  0  0
 15  9  1  0  0  0
 27 18  1  0  0  0
 27 22  1  0  0  0
M  END
> <minimizedAffinity>
-9.07245

> <CNNscore>
0.1678913683

> <CNNaffinity>
6.0465383530

> <CNN_VS>
1.0151616335

> <CNNaffinity_variance>
0.1167462021

$$$$
