


 36 40  0  0  0  0  0  0  0  0999 V2000
   -7.5408   -1.3592  -22.9741 N   0  0  0  0  0  0  0  0  0  0  0  0
   -7.7750    0.0986  -23.2386 C   0  0  0  0  0  0  0  0  0  0  0  0
   -9.1751    0.6268  -23.3409 C   0  0  0  0  0  0  0  0  0  0  0  0
  -10.5114    1.2963  -23.4685 C   0  0  0  0  0  0  0  0  0  0  0  0
  -11.6954    1.0267  -23.4256 O   0  0  0  0  0  0  0  0  0  0  0  0
  -10.2762    2.7544  -23.7307 N   0  0  0  0  0  0  0  0  0  0  0  0
   -8.7946    2.9861  -23.7652 C   0  0  0  0  0  0  0  0  0  0  0  0
   -8.1141    1.6712  -23.5243 C   0  0  0  0  0  0  0  0  0  0  0  0
  -10.3412   -0.3027  -23.1788 C   0  0  0  0  0  0  0  0  0  0  0  0
  -11.7413    0.2255  -23.2811 C   0  0  0  0  0  0  0  0  0  0  0  0
  -12.9073   -0.7041  -23.1190 C   0  0  0  0  0  0  0  0  0  0  0  0
  -14.3075   -0.1758  -23.2213 Cl  0  0  0  0  0  0  0  0  0  0  0  0
  -12.6732   -2.1619  -22.8545 C   0  0  0  0  0  0  0  0  0  0  0  0
  -11.2730   -2.6901  -22.7521 C   0  0  0  0  0  0  0  0  0  0  0  0
  -10.1070   -1.7606  -22.9143 C   0  0  0  0  0  0  0  0  0  0  0  0
   -8.7068   -2.2888  -22.8120 C   0  0  0  0  0  0  0  0  0  0  0  0
   -8.4726   -3.7466  -22.5475 O   0  0  0  0  0  0  0  0  0  0  0  0
  -11.3365    3.7975  -23.9244 C   0  0  0  0  0  0  0  0  0  0  0  0
  -12.2125    4.1991  -22.7748 C   0  0  0  0  0  0  0  0  0  0  0  0
  -13.2728    5.2422  -22.9685 N   0  0  0  0  0  0  0  0  0  0  0  0
  -13.4572    5.8839  -24.3117 C   0  0  0  0  0  0  0  0  0  0  0  0
  -12.5812    5.4823  -25.4613 C   0  0  0  0  0  0  0  0  0  0  0  0
  -12.7656    6.1240  -26.8046 C   0  0  0  0  0  0  0  0  0  0  0  0
  -11.8895    5.7225  -27.9540 C   0  0  0  0  0  0  0  0  0  0  0  0
  -10.8292    4.6793  -27.7604 C   0  0  0  0  0  0  0  0  0  0  0  0
  -10.6449    4.0376  -26.4171 C   0  0  0  0  0  0  0  0  0  0  0  0
  -11.5209    4.4392  -25.2676 C   0  0  0  0  0  0  0  0  0  0  0  0
   -6.1406   -1.8874  -22.8718 C   0  0  0  0  0  0  0  0  0  0  0  0
   -5.4770   -5.6257  -21.7163 C   0  0  0  0  0  0  0  0  0  0  0  0
   -5.7705   -4.4438  -22.5920 N   0  0  0  0  0  0  0  0  0  0  0  0
   -5.8470   -3.0694  -21.9961 C   0  0  0  0  0  0  0  0  0  0  0  0
   -5.6300   -2.8769  -20.5243 O   0  0  0  0  0  0  0  0  0  0  0  0
   -5.9130   -4.5701  -23.5579 H   0  0  0  0  0  0  0  0  0  0  0  0
   -6.6327    1.4411  -23.4755 C   0  0  0  0  0  0  0  0  0  0  0  0
   -5.6939    2.6092  -23.4138 O   0  0  0  0  0  0  0  0  0  0  0  0
   -5.4027    3.2689  -22.0984 C   0  0  0  0  0  0  0  0  0  0  0  0
 29 30  1  0  0  0
 30 31  1  0  0  0
 31 32  2  0  0  0
 31 28  1  0  0  0
 28  1  1  0  0  0
  1  2  1  0  0  0
  3  2  1  0  0  0
  3  4  1  0  0  0
  4  5  2  0  0  0
  4  6  1  0  0  0
  6 18  1  0  0  0
 18 19  2  0  0  0
 19 20  1  0  0  0
 20 21  2  0  0  0
 21 22  1  0  0  0
 22 23  2  0  0  0
 23 24  1  0  0  0
 24 25  2  0  0  0
 25 26  1  0  0  0
 26 27  2  0  0  0
  6  7  1  0  0  0
  7  8  1  0  0  0
  8 34  1  0  0  0
 34 35  1  0  0  0
 35 36  1  0  0  0
  3  9  1  0  0  0
  9 10  2  0  0  0
 10 11  1  0  0  0
 11 12  1  0  0  0
 11 13  2  0  0  0
 13 14  1  0  0  0
 14 15  2  0  0  0
 15 16  1  0  0  0
 16 17  2  0  0  0
 16  1  1  0  0  0
  8  3  1  0  0  0
 15  9  1  0  0  0
 27 18  1  0  0  0
 27 22  1  0  0  0
 30 33  1  0  0  0
M  END
> <minimizedAffinity>
-6.82649

> <CNNscore>
0.6414397955

> <CNNaffinity>
6.5548372269

> <CNN_VS>
4.2045335770

> <CNNaffinity_variance>
0.0641983300

$$$$



 36 40  0  0  0  0  0  0  0  0999 V2000
  -11.4775    3.8531  -23.9560 N   0  0  0  0  0  0  0  0  0  0  0  0
  -10.1146    3.2357  -23.8497 C   0  0  0  0  0  0  0  0  0  0  0  0
   -9.9758    1.7625  -23.6040 C   0  0  0  0  0  0  0  0  0  0  0  0
   -9.6816    0.3118  -23.3616 C   0  0  0  0  0  0  0  0  0  0  0  0
  -10.2648   -0.7399  -23.1879 O   0  0  0  0  0  0  0  0  0  0  0  0
   -8.1918    0.1400  -23.3292 N   0  0  0  0  0  0  0  0  0  0  0  0
   -7.5652    1.4846  -23.5516 C   0  0  0  0  0  0  0  0  0  0  0  0
   -8.6678    2.4873  -23.7214 C   0  0  0  0  0  0  0  0  0  0  0  0
  -11.1999    0.9067  -23.4645 C   0  0  0  0  0  0  0  0  0  0  0  0
  -11.0610   -0.5665  -23.2188 C   0  0  0  0  0  0  0  0  0  0  0  0
  -12.2850   -1.4222  -23.0794 C   0  0  0  0  0  0  0  0  0  0  0  0
  -12.1462   -2.8954  -22.8336 Cl  0  0  0  0  0  0  0  0  0  0  0  0
  -13.6479   -0.8047  -23.1857 C   0  0  0  0  0  0  0  0  0  0  0  0
  -13.7868    0.6685  -23.4314 C   0  0  0  0  0  0  0  0  0  0  0  0
  -12.5627    1.5242  -23.5708 C   0  0  0  0  0  0  0  0  0  0  0  0
  -12.7015    2.9974  -23.8165 C   0  0  0  0  0  0  0  0  0  0  0  0
  -14.0644    3.6149  -23.9228 O   0  0  0  0  0  0  0  0  0  0  0  0
   -7.4575   -1.1499  -23.1125 C   0  0  0  0  0  0  0  0  0  0  0  0
   -6.9291   -1.4926  -21.7511 C   0  0  0  0  0  0  0  0  0  0  0  0
   -6.1948   -2.7825  -21.5344 N   0  0  0  0  0  0  0  0  0  0  0  0
   -5.9889   -3.7297  -22.6791 C   0  0  0  0  0  0  0  0  0  0  0  0
   -6.5173   -3.3870  -24.0405 C   0  0  0  0  0  0  0  0  0  0  0  0
   -6.3114   -4.3343  -25.1853 C   0  0  0  0  0  0  0  0  0  0  0  0
   -6.8398   -3.9915  -26.5466 C   0  0  0  0  0  0  0  0  0  0  0  0
   -7.5741   -2.7016  -26.7633 C   0  0  0  0  0  0  0  0  0  0  0  0
   -7.7800   -1.7544  -25.6186 C   0  0  0  0  0  0  0  0  0  0  0  0
   -7.2516   -2.0971  -24.2572 C   0  0  0  0  0  0  0  0  0  0  0  0
  -11.6163    5.3264  -24.2017 C   0  0  0  0  0  0  0  0  0  0  0  0
  -13.9394    6.4459  -27.2183 C   0  0  0  0  0  0  0  0  0  0  0  0
  -13.5078    5.9477  -25.8709 N   0  0  0  0  0  0  0  0  0  0  0  0
  -12.0479    5.8246  -25.5491 C   0  0  0  0  0  0  0  0  0  0  0  0
  -11.0196    6.1998  -26.5747 O   0  0  0  0  0  0  0  0  0  0  0  0
  -14.1827    5.7014  -25.1978 H   0  0  0  0  0  0  0  0  0  0  0  0
   -8.4931    3.9570  -23.9657 C   0  0  0  0  0  0  0  0  0  0  0  0
   -7.2748    4.6635  -23.4495 O   0  0  0  0  0  0  0  0  0  0  0  0
   -7.3938    5.6235  -22.3031 C   0  0  0  0  0  0  0  0  0  0  0  0
 29 30  1  0  0  0
 30 31  1  0  0  0
 31 32  2  0  0  0
 31 28  1  0  0  0
 28  1  1  0  0  0
  1  2  1  0  0  0
  3  2  1  0  0  0
  3  4  1  0  0  0
  4  5  2  0  0  0
  4  6  1  0  0  0
  6 18  1  0  0  0
 18 19  2  0  0  0
 19 20  1  0  0  0
 20 21  2  0  0  0
 21 22  1  0  0  0
 22 23  2  0  0  0
 23 24  1  0  0  0
 24 25  2  0  0  0
 25 26  1  0  0  0
 26 27  2  0  0  0
  6  7  1  0  0  0
  7  8  1  0  0  0
  8 34  1  0  0  0
 34 35  1  0  0  0
 35 36  1  0  0  0
  3  9  1  0  0  0
  9 10  2  0  0  0
 10 11  1  0  0  0
 11 12  1  0  0  0
 11 13  2  0  0  0
 13 14  1  0  0  0
 14 15  2  0  0  0
 15 16  1  0  0  0
 16 17  2  0  0  0
 16  1  1  0  0  0
  8  3  1  0  0  0
 15  9  1  0  0  0
 27 18  1  0  0  0
 27 22  1  0  0  0
 30 33  1  0  0  0
M  END
> <minimizedAffinity>
-7.01542

> <CNNscore>
0.4967236817

> <CNNaffinity>
6.5654602051

> <CNN_VS>
3.2612195015

> <CNNaffinity_variance>
0.2694211006

$$$$



 36 40  0  0  0  0  0  0  0  0999 V2000
   -9.3335    2.7742  -24.6842 N   0  0  0  0  0  0  0  0  0  0  0  0
   -8.4086    1.5986  -24.7958 C   0  0  0  0  0  0  0  0  0  0  0  0
   -8.8923    0.2265  -24.4308 C   0  0  0  0  0  0  0  0  0  0  0  0
   -9.2326   -1.1972  -24.1033 C   0  0  0  0  0  0  0  0  0  0  0  0
  -10.1676   -1.8627  -23.7043 O   0  0  0  0  0  0  0  0  0  0  0  0
   -8.0153   -2.0355  -24.3595 N   0  0  0  0  0  0  0  0  0  0  0  0
   -6.9227   -1.1298  -24.8454 C   0  0  0  0  0  0  0  0  0  0  0  0
   -7.4648    0.2681  -24.8894 C   0  0  0  0  0  0  0  0  0  0  0  0
  -10.3010    0.0300  -23.9542 C   0  0  0  0  0  0  0  0  0  0  0  0
  -10.7847   -1.3422  -23.5892 C   0  0  0  0  0  0  0  0  0  0  0  0
  -12.1933   -1.5386  -23.1126 C   0  0  0  0  0  0  0  0  0  0  0  0
  -12.6771   -2.9108  -22.7476 Cl  0  0  0  0  0  0  0  0  0  0  0  0
  -13.1182   -0.3630  -23.0011 C   0  0  0  0  0  0  0  0  0  0  0  0
  -12.6345    1.0091  -23.3660 C   0  0  0  0  0  0  0  0  0  0  0  0
  -11.2259    1.2056  -23.8426 C   0  0  0  0  0  0  0  0  0  0  0  0
  -10.7421    2.5778  -24.2076 C   0  0  0  0  0  0  0  0  0  0  0  0
  -11.6670    3.7534  -24.0961 O   0  0  0  0  0  0  0  0  0  0  0  0
   -7.9093   -3.5189  -24.1642 C   0  0  0  0  0  0  0  0  0  0  0  0
   -7.3064   -4.0685  -22.9054 C   0  0  0  0  0  0  0  0  0  0  0  0
   -7.2004   -5.5519  -22.7100 N   0  0  0  0  0  0  0  0  0  0  0  0
   -7.6972   -6.4858  -23.7735 C   0  0  0  0  0  0  0  0  0  0  0  0
   -8.3001   -5.9362  -25.0323 C   0  0  0  0  0  0  0  0  0  0  0  0
   -8.7969   -6.8702  -26.0958 C   0  0  0  0  0  0  0  0  0  0  0  0
   -9.3998   -6.3206  -27.3546 C   0  0  0  0  0  0  0  0  0  0  0  0
   -9.5058   -4.8371  -27.5499 C   0  0  0  0  0  0  0  0  0  0  0  0
   -9.0090   -3.9032  -26.4864 C   0  0  0  0  0  0  0  0  0  0  0  0
   -8.4061   -4.4528  -25.2276 C   0  0  0  0  0  0  0  0  0  0  0  0
   -8.8497    4.1464  -25.0492 C   0  0  0  0  0  0  0  0  0  0  0  0
   -7.0501    5.7439  -21.8934 C   0  0  0  0  0  0  0  0  0  0  0  0
   -8.0818    5.0620  -22.7423 N   0  0  0  0  0  0  0  0  0  0  0  0
   -7.8181    4.8284  -24.2003 C   0  0  0  0  0  0  0  0  0  0  0  0
   -6.5227    5.2768  -24.8095 O   0  0  0  0  0  0  0  0  0  0  0  0
   -8.9319    4.7677  -22.3425 H   0  0  0  0  0  0  0  0  0  0  0  0
   -6.7115    1.4927  -25.3171 C   0  0  0  0  0  0  0  0  0  0  0  0
   -5.5512    1.9823  -24.5023 O   0  0  0  0  0  0  0  0  0  0  0  0
   -4.9667    1.1109  -23.4303 C   0  0  0  0  0  0  0  0  0  0  0  0
 29 30  1  0  0  0
 30 31  1  0  0  0
 31 32  2  0  0  0
 31 28  1  0  0  0
 28  1  1  0  0  0
  1  2  1  0  0  0
  3  2  1  0  0  0
  3  4  1  0  0  0
  4  5  2  0  0  0
  4  6  1  0  0  0
  6 18  1  0  0  0
 18 19  2  0  0  0
 19 20  1  0  0  0
 20 21  2  0  0  0
 21 22  1  0  0  0
 22 23  2  0  0  0
 23 24  1  0  0  0
 24 25  2  0  0  0
 25 26  1  0  0  0
 26 27  2  0  0  0
  6  7  1  0  0  0
  7  8  1  0  0  0
  8 34  1  0  0  0
 34 35  1  0  0  0
 35 36  1  0  0  0
  3  9  1  0  0  0
  9 10  2  0  0  0
 10 11  1  0  0  0
 11 12  1  0  0  0
 11 13  2  0  0  0
 13 14  1  0  0  0
 14 15  2  0  0  0
 15 16  1  0  0  0
 16 17  2  0  0  0
 16  1  1  0  0  0
  8  3  1  0  0  0
 15  9  1  0  0  0
 27 18  1  0  0  0
 27 22  1  0  0  0
 30 33  1  0  0  0
M  END
> <minimizedAffinity>
-6.98524

> <CNNscore>
0.4280440211

> <CNNaffinity>
6.2794618607

> <CNN_VS>
2.6878859997

> <CNNaffinity_variance>
0.1247951761

$$$$



 36 40  0  0  0  0  0  0  0  0999 V2000
  -11.5733    3.9307  -24.0262 N   0  0  0  0  0  0  0  0  0  0  0  0
  -10.1917    3.3576  -23.9131 C   0  0  0  0  0  0  0  0  0  0  0  0
  -10.0066    1.8919  -23.6536 C   0  0  0  0  0  0  0  0  0  0  0  0
   -9.6670    0.4535  -23.3975 C   0  0  0  0  0  0  0  0  0  0  0  0
  -10.2169   -0.6144  -23.2145 O   0  0  0  0  0  0  0  0  0  0  0  0
   -8.1725    0.3292  -23.3623 N   0  0  0  0  0  0  0  0  0  0  0  0
   -7.5885    1.6909  -23.5967 C   0  0  0  0  0  0  0  0  0  0  0  0
   -8.7221    2.6566  -23.7767 C   0  0  0  0  0  0  0  0  0  0  0  0
  -11.2032    0.9992  -23.5071 C   0  0  0  0  0  0  0  0  0  0  0  0
  -11.0181   -0.4665  -23.2476 C   0  0  0  0  0  0  0  0  0  0  0  0
  -12.2146   -1.3591  -23.1012 C   0  0  0  0  0  0  0  0  0  0  0  0
  -12.0296   -2.8249  -22.8416 Cl  0  0  0  0  0  0  0  0  0  0  0  0
  -13.5962   -0.7861  -23.2143 C   0  0  0  0  0  0  0  0  0  0  0  0
  -13.7813    0.6796  -23.4738 C   0  0  0  0  0  0  0  0  0  0  0  0
  -12.5848    1.5723  -23.6202 C   0  0  0  0  0  0  0  0  0  0  0  0
  -12.7698    3.0381  -23.8798 C   0  0  0  0  0  0  0  0  0  0  0  0
  -14.1514    3.6111  -23.9929 O   0  0  0  0  0  0  0  0  0  0  0  0
   -7.3981   -0.9347  -23.1330 C   0  0  0  0  0  0  0  0  0  0  0  0
   -7.1758   -1.8939  -24.2647 C   0  0  0  0  0  0  0  0  0  0  0  0
   -6.4013   -3.1579  -24.0354 N   0  0  0  0  0  0  0  0  0  0  0  0
   -5.8492   -3.4627  -22.6745 C   0  0  0  0  0  0  0  0  0  0  0  0
   -6.0715   -2.5035  -21.5428 C   0  0  0  0  0  0  0  0  0  0  0  0
   -5.5193   -2.8084  -20.1818 C   0  0  0  0  0  0  0  0  0  0  0  0
   -5.7416   -1.8492  -19.0502 C   0  0  0  0  0  0  0  0  0  0  0  0
   -6.5161   -0.5852  -19.2795 C   0  0  0  0  0  0  0  0  0  0  0  0
   -7.0682   -0.2804  -20.6404 C   0  0  0  0  0  0  0  0  0  0  0  0
   -6.8459   -1.2396  -21.7721 C   0  0  0  0  0  0  0  0  0  0  0  0
  -11.7583    5.3965  -24.2858 C   0  0  0  0  0  0  0  0  0  0  0  0
  -13.9867    6.4222  -27.4054 C   0  0  0  0  0  0  0  0  0  0  0  0
  -13.5966    5.9461  -26.0375 N   0  0  0  0  0  0  0  0  0  0  0  0
  -12.1484    5.8725  -25.6537 C   0  0  0  0  0  0  0  0  0  0  0  0
  -11.0903    6.2750  -26.6378 O   0  0  0  0  0  0  0  0  0  0  0  0
  -14.2911    5.6820  -25.3916 H   0  0  0  0  0  0  0  0  0  0  0  0
   -8.5936    4.1287  -24.0346 C   0  0  0  0  0  0  0  0  0  0  0  0
   -7.3812    4.8710  -23.5561 O   0  0  0  0  0  0  0  0  0  0  0  0
   -7.1822    5.1162  -22.0897 C   0  0  0  0  0  0  0  0  0  0  0  0
 29 30  1  0  0  0
 30 31  1  0  0  0
 31 32  2  0  0  0
 31 28  1  0  0  0
 28  1  1  0  0  0
  1  2  1  0  0  0
  3  2  1  0  0  0
  3  4  1  0  0  0
  4  5  2  0  0  0
  4  6  1  0  0  0
  6 18  1  0  0  0
 18 19  2  0  0  0
 19 20  1  0  0  0
 20 21  2  0  0  0
 21 22  1  0  0  0
 22 23  2  0  0  0
 23 24  1  0  0  0
 24 25  2  0  0  0
 25 26  1  0  0  0
 26 27  2  0  0  0
  6  7  1  0  0  0
  7  8  1  0  0  0
  8 34  1  0  0  0
 34 35  1  0  0  0
 35 36  1  0  0  0
  3  9  1  0  0  0
  9 10  2  0  0  0
 10 11  1  0  0  0
 11 12  1  0  0  0
 11 13  2  0  0  0
 13 14  1  0  0  0
 14 15  2  0  0  0
 15 16  1  0  0  0
 16 17  2  0  0  0
 16  1  1  0  0  0
  8  3  1  0  0  0
 15  9  1  0  0  0
 27 18  1  0  0  0
 27 22  1  0  0  0
 30 33  1  0  0  0
M  END
> <minimizedAffinity>
-7.84317

> <CNNscore>
0.3711528182

> <CNNaffinity>
6.3499121666

> <CNN_VS>
2.3567876816

> <CNNaffinity_variance>
0.0602988824

$$$$



 36 40  0  0  0  0  0  0  0  0999 V2000
   -5.3397   -6.3014  -23.4999 N   0  0  0  0  0  0  0  0  0  0  0  0
   -5.9037   -5.0399  -22.9165 C   0  0  0  0  0  0  0  0  0  0  0  0
   -6.9193   -4.2470  -23.6844 C   0  0  0  0  0  0  0  0  0  0  0  0
   -7.9362   -3.3541  -24.3314 C   0  0  0  0  0  0  0  0  0  0  0  0
   -8.5889   -3.2741  -25.3532 O   0  0  0  0  0  0  0  0  0  0  0  0
   -8.2108   -2.2121  -23.3984 N   0  0  0  0  0  0  0  0  0  0  0  0
   -7.3637   -2.3992  -22.1748 C   0  0  0  0  0  0  0  0  0  0  0  0
   -6.5655   -3.6569  -22.3516 C   0  0  0  0  0  0  0  0  0  0  0  0
   -7.3710   -4.7157  -25.0359 C   0  0  0  0  0  0  0  0  0  0  0  0
   -8.3866   -3.9228  -25.8039 C   0  0  0  0  0  0  0  0  0  0  0  0
   -8.8382   -4.3915  -27.1553 C   0  0  0  0  0  0  0  0  0  0  0  0
   -9.8539   -3.5987  -27.9233 Cl  0  0  0  0  0  0  0  0  0  0  0  0
   -8.2742   -5.6531  -27.7387 C   0  0  0  0  0  0  0  0  0  0  0  0
   -7.2586   -6.4459  -26.9707 C   0  0  0  0  0  0  0  0  0  0  0  0
   -6.8070   -5.9773  -25.6193 C   0  0  0  0  0  0  0  0  0  0  0  0
   -5.7913   -6.7701  -24.8513 C   0  0  0  0  0  0  0  0  0  0  0  0
   -5.2273   -8.0317  -25.4347 O   0  0  0  0  0  0  0  0  0  0  0  0
   -9.1650   -1.0815  -23.6457 C   0  0  0  0  0  0  0  0  0  0  0  0
   -8.6617    0.2160  -24.2055 C   0  0  0  0  0  0  0  0  0  0  0  0
   -9.6159    1.3466  -24.4528 N   0  0  0  0  0  0  0  0  0  0  0  0
  -11.0735    1.1798  -24.1403 C   0  0  0  0  0  0  0  0  0  0  0  0
  -11.5768   -0.1177  -23.5804 C   0  0  0  0  0  0  0  0  0  0  0  0
  -13.0344   -0.2845  -23.2679 C   0  0  0  0  0  0  0  0  0  0  0  0
  -13.5377   -1.5819  -22.7081 C   0  0  0  0  0  0  0  0  0  0  0  0
  -12.5834   -2.7125  -22.4608 C   0  0  0  0  0  0  0  0  0  0  0  0
  -11.1259   -2.5457  -22.7733 C   0  0  0  0  0  0  0  0  0  0  0  0
  -10.6226   -1.2483  -23.3332 C   0  0  0  0  0  0  0  0  0  0  0  0
   -4.3240   -7.0943  -22.7318 C   0  0  0  0  0  0  0  0  0  0  0  0
   -0.5816   -8.3439  -23.1594 C   0  0  0  0  0  0  0  0  0  0  0  0
   -1.9834   -8.2183  -22.6407 N   0  0  0  0  0  0  0  0  0  0  0  0
   -2.9222   -7.2199  -23.2505 C   0  0  0  0  0  0  0  0  0  0  0  0
   -2.4590   -6.3470  -24.3791 O   0  0  0  0  0  0  0  0  0  0  0  0
   -2.2874   -8.7912  -21.9000 H   0  0  0  0  0  0  0  0  0  0  0  0
   -5.5855   -4.2247  -21.3681 C   0  0  0  0  0  0  0  0  0  0  0  0
   -5.0516   -3.3659  -20.2603 O   0  0  0  0  0  0  0  0  0  0  0  0
   -5.7156   -2.0604  -19.9368 C   0  0  0  0  0  0  0  0  0  0  0  0
 29 30  1  0  0  0
 30 31  1  0  0  0
 31 32  2  0  0  0
 31 28  1  0  0  0
 28  1  1  0  0  0
  1  2  1  0  0  0
  3  2  1  0  0  0
  3  4  1  0  0  0
  4  5  2  0  0  0
  4  6  1  0  0  0
  6 18  1  0  0  0
 18 19  2  0  0  0
 19 20  1  0  0  0
 20 21  2  0  0  0
 21 22  1  0  0  0
 22 23  2  0  0  0
 23 24  1  0  0  0
 24 25  2  0  0  0
 25 26  1  0  0  0
 26 27  2  0  0  0
  6  7  1  0  0  0
  7  8  1  0  0  0
  8 34  1  0  0  0
 34 35  1  0  0  0
 35 36  1  0  0  0
  3  9  1  0  0  0
  9 10  2  0  0  0
 10 11  1  0  0  0
 11 12  1  0  0  0
 11 13  2  0  0  0
 13 14  1  0  0  0
 14 15  2  0  0  0
 15 16  1  0  0  0
 16 17  2  0  0  0
 16  1  1  0  0  0
  8  3  1  0  0  0
 15  9  1  0  0  0
 27 18  1  0  0  0
 27 22  1  0  0  0
 30 33  1  0  0  0
M  END
> <minimizedAffinity>
-7.28702

> <CNNscore>
0.3555508554

> <CNNaffinity>
6.3117532730

> <CNN_VS>
2.2441492081

> <CNNaffinity_variance>
0.1151865348

$$$$



 36 40  0  0  0  0  0  0  0  0999 V2000
   -8.2843   -2.9503  -22.8091 N   0  0  0  0  0  0  0  0  0  0  0  0
   -9.5537   -2.1950  -23.0702 C   0  0  0  0  0  0  0  0  0  0  0  0
   -9.5646   -0.6971  -22.9928 C   0  0  0  0  0  0  0  0  0  0  0  0
   -9.7279    0.7934  -22.9520 C   0  0  0  0  0  0  0  0  0  0  0  0
   -9.0742    1.7961  -22.7432 O   0  0  0  0  0  0  0  0  0  0  0  0
  -11.1578    1.1121  -23.2745 N   0  0  0  0  0  0  0  0  0  0  0  0
  -11.8781   -0.1816  -23.5147 C   0  0  0  0  0  0  0  0  0  0  0  0
  -10.8934   -1.2996  -23.3406 C   0  0  0  0  0  0  0  0  0  0  0  0
   -8.3060    0.0456  -22.6543 C   0  0  0  0  0  0  0  0  0  0  0  0
   -8.3169    1.5435  -22.5769 C   0  0  0  0  0  0  0  0  0  0  0  0
   -7.0584    2.2862  -22.2384 C   0  0  0  0  0  0  0  0  0  0  0  0
   -7.0692    3.7842  -22.1609 Cl  0  0  0  0  0  0  0  0  0  0  0  0
   -5.7890    1.5309  -21.9773 C   0  0  0  0  0  0  0  0  0  0  0  0
   -5.7781    0.0329  -22.0547 C   0  0  0  0  0  0  0  0  0  0  0  0
   -7.0366   -0.7097  -22.3932 C   0  0  0  0  0  0  0  0  0  0  0  0
   -7.0258   -2.2077  -22.4706 C   0  0  0  0  0  0  0  0  0  0  0  0
   -5.7564   -2.9630  -22.2095 O   0  0  0  0  0  0  0  0  0  0  0  0
  -11.7613    2.4835  -23.3446 C   0  0  0  0  0  0  0  0  0  0  0  0
  -12.8076    2.8942  -22.3513 C   0  0  0  0  0  0  0  0  0  0  0  0
  -13.4111    4.2656  -22.4214 N   0  0  0  0  0  0  0  0  0  0  0  0
  -12.9683    5.2264  -23.4848 C   0  0  0  0  0  0  0  0  0  0  0  0
  -11.9220    4.8157  -24.4781 C   0  0  0  0  0  0  0  0  0  0  0  0
  -11.4793    5.7765  -25.5416 C   0  0  0  0  0  0  0  0  0  0  0  0
  -10.4330    5.3658  -26.5348 C   0  0  0  0  0  0  0  0  0  0  0  0
   -9.8295    3.9944  -26.4647 C   0  0  0  0  0  0  0  0  0  0  0  0
  -10.2722    3.0336  -25.4013 C   0  0  0  0  0  0  0  0  0  0  0  0
  -11.3185    3.4443  -24.4080 C   0  0  0  0  0  0  0  0  0  0  0  0
   -8.2735   -4.4483  -22.8865 C   0  0  0  0  0  0  0  0  0  0  0  0
   -6.6671   -6.7069  -25.7270 C   0  0  0  0  0  0  0  0  0  0  0  0
   -6.8773   -6.0257  -24.4072 N   0  0  0  0  0  0  0  0  0  0  0  0
   -8.0633   -5.1296  -24.2063 C   0  0  0  0  0  0  0  0  0  0  0  0
   -9.0391   -4.9148  -25.3250 O   0  0  0  0  0  0  0  0  0  0  0  0
   -6.2368   -6.1667  -23.6730 H   0  0  0  0  0  0  0  0  0  0  0  0
  -11.1863   -2.7634  -23.4883 C   0  0  0  0  0  0  0  0  0  0  0  0
  -12.4999   -3.3164  -23.0208 O   0  0  0  0  0  0  0  0  0  0  0  0
  -13.2907   -2.5881  -21.9747 C   0  0  0  0  0  0  0  0  0  0  0  0
 29 30  1  0  0  0
 30 31  1  0  0  0
 31 32  2  0  0  0
 31 28  1  0  0  0
 28  1  1  0  0  0
  1  2  1  0  0  0
  3  2  1  0  0  0
  3  4  1  0  0  0
  4  5  2  0  0  0
  4  6  1  0  0  0
  6 18  1  0  0  0
 18 19  2  0  0  0
 19 20  1  0  0  0
 20 21  2  0  0  0
 21 22  1  0  0  0
 22 23  2  0  0  0
 23 24  1  0  0  0
 24 25  2  0  0  0
 25 26  1  0  0  0
 26 27  2  0  0  0
  6  7  1  0  0  0
  7  8  1  0  0  0
  8 34  1  0  0  0
 34 35  1  0  0  0
 35 36  1  0  0  0
  3  9  1  0  0  0
  9 10  2  0  0  0
 10 11  1  0  0  0
 11 12  1  0  0  0
 11 13  2  0  0  0
 13 14  1  0  0  0
 14 15  2  0  0  0
 15 16  1  0  0  0
 16 17  2  0  0  0
 16  1  1  0  0  0
  8  3  1  0  0  0
 15  9  1  0  0  0
 27 18  1  0  0  0
 27 22  1  0  0  0
 30 33  1  0  0  0
M  END
> <minimizedAffinity>
-7.60761

> <CNNscore>
0.3545562625

> <CNNaffinity>
6.3760972023

> <CNN_VS>
2.2606852055

> <CNNaffinity_variance>
0.0589736924

$$$$



 36 40  0  0  0  0  0  0  0  0999 V2000
  -12.1367    2.1923  -23.7875 N   0  0  0  0  0  0  0  0  0  0  0  0
  -12.0332    0.7010  -23.6635 C   0  0  0  0  0  0  0  0  0  0  0  0
  -10.6908    0.0346  -23.7254 C   0  0  0  0  0  0  0  0  0  0  0  0
   -9.4243   -0.7679  -23.7683 C   0  0  0  0  0  0  0  0  0  0  0  0
   -8.2259   -0.6098  -23.8910 O   0  0  0  0  0  0  0  0  0  0  0  0
   -9.7865   -2.2145  -23.6062 N   0  0  0  0  0  0  0  0  0  0  0  0
  -11.2768   -2.3060  -23.4630 C   0  0  0  0  0  0  0  0  0  0  0  0
  -11.8357   -0.9160  -23.5367 C   0  0  0  0  0  0  0  0  0  0  0  0
   -9.4518    0.8595  -23.9114 C   0  0  0  0  0  0  0  0  0  0  0  0
   -8.1095    0.1931  -23.9733 C   0  0  0  0  0  0  0  0  0  0  0  0
   -6.8705    1.0180  -24.1593 C   0  0  0  0  0  0  0  0  0  0  0  0
   -5.5281    0.3516  -24.2213 Cl  0  0  0  0  0  0  0  0  0  0  0  0
   -6.9740    2.5092  -24.2833 C   0  0  0  0  0  0  0  0  0  0  0  0
   -8.3164    3.1756  -24.2214 C   0  0  0  0  0  0  0  0  0  0  0  0
   -9.5553    2.3508  -24.0354 C   0  0  0  0  0  0  0  0  0  0  0  0
  -10.8978    3.0172  -23.9734 C   0  0  0  0  0  0  0  0  0  0  0  0
  -11.0012    4.5085  -24.0974 O   0  0  0  0  0  0  0  0  0  0  0  0
   -8.8267   -3.3672  -23.5900 C   0  0  0  0  0  0  0  0  0  0  0  0
   -7.6829   -3.3773  -22.6196 C   0  0  0  0  0  0  0  0  0  0  0  0
   -6.7232   -4.5299  -22.6034 N   0  0  0  0  0  0  0  0  0  0  0  0
   -6.9073   -5.6725  -23.5576 C   0  0  0  0  0  0  0  0  0  0  0  0
   -8.0511   -5.6625  -24.5280 C   0  0  0  0  0  0  0  0  0  0  0  0
   -8.2351   -6.8051  -25.4823 C   0  0  0  0  0  0  0  0  0  0  0  0
   -9.3789   -6.7950  -26.4526 C   0  0  0  0  0  0  0  0  0  0  0  0
  -10.3386   -5.6423  -26.4688 C   0  0  0  0  0  0  0  0  0  0  0  0
  -10.1546   -4.4997  -25.5146 C   0  0  0  0  0  0  0  0  0  0  0  0
   -9.0108   -4.5098  -24.5442 C   0  0  0  0  0  0  0  0  0  0  0  0
  -13.4791    2.8587  -23.7255 C   0  0  0  0  0  0  0  0  0  0  0  0
  -13.7150    6.5031  -25.2788 C   0  0  0  0  0  0  0  0  0  0  0  0
  -13.6134    5.0101  -25.1759 N   0  0  0  0  0  0  0  0  0  0  0  0
  -13.5808    4.3517  -23.8285 C   0  0  0  0  0  0  0  0  0  0  0  0
  -13.6498    5.1863  -22.5840 O   0  0  0  0  0  0  0  0  0  0  0  0
  -13.5680    4.4623  -25.9926 H   0  0  0  0  0  0  0  0  0  0  0  0
  -13.2851   -0.5422  -23.4389 C   0  0  0  0  0  0  0  0  0  0  0  0
  -14.2728   -1.5130  -22.8630 O   0  0  0  0  0  0  0  0  0  0  0  0
  -13.8176   -2.5541  -21.8838 C   0  0  0  0  0  0  0  0  0  0  0  0
 29 30  1  0  0  0
 30 31  1  0  0  0
 31 32  2  0  0  0
 31 28  1  0  0  0
 28  1  1  0  0  0
  1  2  1  0  0  0
  3  2  1  0  0  0
  3  4  1  0  0  0
  4  5  2  0  0  0
  4  6  1  0  0  0
  6 18  1  0  0  0
 18 19  2  0  0  0
 19 20  1  0  0  0
 20 21  2  0  0  0
 21 22  1  0  0  0
 22 23  2  0  0  0
 23 24  1  0  0  0
 24 25  2  0  0  0
 25 26  1  0  0  0
 26 27  2  0  0  0
  6  7  1  0  0  0
  7  8  1  0  0  0
  8 34  1  0  0  0
 34 35  1  0  0  0
 35 36  1  0  0  0
  3  9  1  0  0  0
  9 10  2  0  0  0
 10 11  1  0  0  0
 11 12  1  0  0  0
 11 13  2  0  0  0
 13 14  1  0  0  0
 14 15  2  0  0  0
 15 16  1  0  0  0
 16 17  2  0  0  0
 16  1  1  0  0  0
  8  3  1  0  0  0
 15  9  1  0  0  0
 27 18  1  0  0  0
 27 22  1  0  0  0
 30 33  1  0  0  0
M  END
> <minimizedAffinity>
-8.52487

> <CNNscore>
0.3092493117

> <CNNaffinity>
6.4441514015

> <CNN_VS>
1.9928493500

> <CNNaffinity_variance>
0.1259087622

$$$$



 36 40  0  0  0  0  0  0  0  0999 V2000
   -7.6870   -3.8793  -26.0276 N   0  0  0  0  0  0  0  0  0  0  0  0
   -7.1880   -3.9273  -24.6138 C   0  0  0  0  0  0  0  0  0  0  0  0
   -6.9748   -2.6541  -23.8500 C   0  0  0  0  0  0  0  0  0  0  0  0
   -6.7155   -1.4705  -22.9658 C   0  0  0  0  0  0  0  0  0  0  0  0
   -6.7776   -0.2573  -22.9926 O   0  0  0  0  0  0  0  0  0  0  0  0
   -6.2279   -1.9791  -21.6416 N   0  0  0  0  0  0  0  0  0  0  0  0
   -6.1859   -3.4770  -21.7073 C   0  0  0  0  0  0  0  0  0  0  0  0
   -6.6475   -3.8942  -23.0722 C   0  0  0  0  0  0  0  0  0  0  0  0
   -7.2607   -1.3328  -24.5000 C   0  0  0  0  0  0  0  0  0  0  0  0
   -7.0476   -0.0595  -23.7362 C   0  0  0  0  0  0  0  0  0  0  0  0
   -7.3334    1.2617  -24.3861 C   0  0  0  0  0  0  0  0  0  0  0  0
   -7.1203    2.5350  -23.6223 Cl  0  0  0  0  0  0  0  0  0  0  0  0
   -7.8324    1.3098  -25.7999 C   0  0  0  0  0  0  0  0  0  0  0  0
   -8.0456    0.0366  -26.5637 C   0  0  0  0  0  0  0  0  0  0  0  0
   -7.7597   -1.2847  -25.9137 C   0  0  0  0  0  0  0  0  0  0  0  0
   -7.9728   -2.5580  -26.6775 C   0  0  0  0  0  0  0  0  0  0  0  0
   -8.4719   -2.5100  -28.0913 O   0  0  0  0  0  0  0  0  0  0  0  0
   -5.8489   -1.1374  -20.4592 C   0  0  0  0  0  0  0  0  0  0  0  0
   -6.6229   -1.2502  -19.1793 C   0  0  0  0  0  0  0  0  0  0  0  0
   -6.2439   -0.4086  -17.9970 N   0  0  0  0  0  0  0  0  0  0  0  0
   -5.0908    0.5458  -18.0945 C   0  0  0  0  0  0  0  0  0  0  0  0
   -4.3168    0.6586  -19.3744 C   0  0  0  0  0  0  0  0  0  0  0  0
   -3.1636    1.6130  -19.4719 C   0  0  0  0  0  0  0  0  0  0  0  0
   -2.3896    1.7257  -20.7519 C   0  0  0  0  0  0  0  0  0  0  0  0
   -2.7687    0.8841  -21.9343 C   0  0  0  0  0  0  0  0  0  0  0  0
   -3.9217   -0.0703  -21.8367 C   0  0  0  0  0  0  0  0  0  0  0  0
   -4.6958   -0.1831  -20.5568 C   0  0  0  0  0  0  0  0  0  0  0  0
   -7.9001   -5.1526  -26.7914 C   0  0  0  0  0  0  0  0  0  0  0  0
   -5.0302   -7.7731  -27.5954 C   0  0  0  0  0  0  0  0  0  0  0  0
   -6.1880   -7.1026  -26.9171 N   0  0  0  0  0  0  0  0  0  0  0  0
   -6.7423   -5.8231  -27.4696 C   0  0  0  0  0  0  0  0  0  0  0  0
   -6.1389   -5.2139  -28.7005 O   0  0  0  0  0  0  0  0  0  0  0  0
   -6.5840   -7.5024  -26.1093 H   0  0  0  0  0  0  0  0  0  0  0  0
   -6.7618   -5.3040  -23.5716 C   0  0  0  0  0  0  0  0  0  0  0  0
   -7.1707   -6.4010  -22.6339 O   0  0  0  0  0  0  0  0  0  0  0  0
   -6.1281   -7.1634  -21.8712 C   0  0  0  0  0  0  0  0  0  0  0  0
 29 30  1  0  0  0
 30 31  1  0  0  0
 31 32  2  0  0  0
 31 28  1  0  0  0
 28  1  1  0  0  0
  1  2  1  0  0  0
  3  2  1  0  0  0
  3  4  1  0  0  0
  4  5  2  0  0  0
  4  6  1  0  0  0
  6 18  1  0  0  0
 18 19  2  0  0  0
 19 20  1  0  0  0
 20 21  2  0  0  0
 21 22  1  0  0  0
 22 23  2  0  0  0
 23 24  1  0  0  0
 24 25  2  0  0  0
 25 26  1  0  0  0
 26 27  2  0  0  0
  6  7  1  0  0  0
  7  8  1  0  0  0
  8 34  1  0  0  0
 34 35  1  0  0  0
 35 36  1  0  0  0
  3  9  1  0  0  0
  9 10  2  0  0  0
 10 11  1  0  0  0
 11 12  1  0  0  0
 11 13  2  0  0  0
 13 14  1  0  0  0
 14 15  2  0  0  0
 15 16  1  0  0  0
 16 17  2  0  0  0
 16  1  1  0  0  0
  8  3  1  0  0  0
 15  9  1  0  0  0
 27 18  1  0  0  0
 27 22  1  0  0  0
 30 33  1  0  0  0
M  END
> <minimizedAffinity>
-7.84548

> <CNNscore>
0.2906821966

> <CNNaffinity>
6.0496444702

> <CNN_VS>
1.7585239410

> <CNNaffinity_variance>
0.2108905315

$$$$



 36 40  0  0  0  0  0  0  0  0999 V2000
   -5.1209   -6.4896  -23.6566 N   0  0  0  0  0  0  0  0  0  0  0  0
   -5.8421   -5.3514  -22.9975 C   0  0  0  0  0  0  0  0  0  0  0  0
   -6.9936   -4.6891  -23.6941 C   0  0  0  0  0  0  0  0  0  0  0  0
   -8.1564   -3.9331  -24.2654 C   0  0  0  0  0  0  0  0  0  0  0  0
   -8.8537   -3.9105  -25.2601 O   0  0  0  0  0  0  0  0  0  0  0  0
   -8.5601   -2.8839  -23.2723 N   0  0  0  0  0  0  0  0  0  0  0  0
   -7.6467   -2.9914  -22.0873 C   0  0  0  0  0  0  0  0  0  0  0  0
   -6.6786   -4.1071  -22.3480 C   0  0  0  0  0  0  0  0  0  0  0  0
   -7.4241   -5.1651  -25.0500 C   0  0  0  0  0  0  0  0  0  0  0  0
   -8.5756   -4.5029  -25.7466 C   0  0  0  0  0  0  0  0  0  0  0  0
   -9.0060   -4.9788  -27.1024 C   0  0  0  0  0  0  0  0  0  0  0  0
  -10.1576   -4.3166  -27.7991 Cl  0  0  0  0  0  0  0  0  0  0  0  0
   -8.2848   -6.1170  -27.7615 C   0  0  0  0  0  0  0  0  0  0  0  0
   -7.1333   -6.7792  -27.0649 C   0  0  0  0  0  0  0  0  0  0  0  0
   -6.7029   -6.3033  -25.7091 C   0  0  0  0  0  0  0  0  0  0  0  0
   -5.5513   -6.9655  -25.0124 C   0  0  0  0  0  0  0  0  0  0  0  0
   -4.8301   -8.1037  -25.6715 O   0  0  0  0  0  0  0  0  0  0  0  0
   -9.6803   -1.8998  -23.4356 C   0  0  0  0  0  0  0  0  0  0  0  0
  -11.0933   -2.3189  -23.1567 C   0  0  0  0  0  0  0  0  0  0  0  0
  -12.2136   -1.3349  -23.3200 N   0  0  0  0  0  0  0  0  0  0  0  0
  -11.9209    0.0682  -23.7622 C   0  0  0  0  0  0  0  0  0  0  0  0
  -10.5079    0.4873  -24.0412 C   0  0  0  0  0  0  0  0  0  0  0  0
  -10.2152    1.8904  -24.4834 C   0  0  0  0  0  0  0  0  0  0  0  0
   -8.8021    2.3094  -24.7624 C   0  0  0  0  0  0  0  0  0  0  0  0
   -7.6818    1.3254  -24.5991 C   0  0  0  0  0  0  0  0  0  0  0  0
   -7.9746   -0.0777  -24.1568 C   0  0  0  0  0  0  0  0  0  0  0  0
   -9.3876   -0.4968  -23.8779 C   0  0  0  0  0  0  0  0  0  0  0  0
   -3.9693   -7.1518  -22.9599 C   0  0  0  0  0  0  0  0  0  0  0  0
   -0.4613   -8.6418  -24.0661 C   0  0  0  0  0  0  0  0  0  0  0  0
   -1.7751   -8.4843  -23.3596 N   0  0  0  0  0  0  0  0  0  0  0  0
   -2.6555   -7.3093  -23.6664 C   0  0  0  0  0  0  0  0  0  0  0  0
   -2.2222   -6.2918  -24.6798 O   0  0  0  0  0  0  0  0  0  0  0  0
   -2.0595   -9.1521  -22.6945 H   0  0  0  0  0  0  0  0  0  0  0  0
   -5.5871   -4.5611  -21.4247 C   0  0  0  0  0  0  0  0  0  0  0  0
   -5.4022   -3.8912  -20.0955 O   0  0  0  0  0  0  0  0  0  0  0  0
   -5.3847   -2.3940  -20.0061 C   0  0  0  0  0  0  0  0  0  0  0  0
 29 30  1  0  0  0
 30 31  1  0  0  0
 31 32  2  0  0  0
 31 28  1  0  0  0
 28  1  1  0  0  0
  1  2  1  0  0  0
  3  2  1  0  0  0
  3  4  1  0  0  0
  4  5  2  0  0  0
  4  6  1  0  0  0
  6 18  1  0  0  0
 18 19  2  0  0  0
 19 20  1  0  0  0
 20 21  2  0  0  0
 21 22  1  0  0  0
 22 23  2  0  0  0
 23 24  1  0  0  0
 24 25  2  0  0  0
 25 26  1  0  0  0
 26 27  2  0  0  0
  6  7  1  0  0  0
  7  8  1  0  0  0
  8 34  1  0  0  0
 34 35  1  0  0  0
 35 36  1  0  0  0
  3  9  1  0  0  0
  9 10  2  0  0  0
 10 11  1  0  0  0
 11 12  1  0  0  0
 11 13  2  0  0  0
 13 14  1  0  0  0
 14 15  2  0  0  0
 15 16  1  0  0  0
 16 17  2  0  0  0
 16  1  1  0  0  0
  8  3  1  0  0  0
 15  9  1  0  0  0
 27 18  1  0  0  0
 27 22  1  0  0  0
 30 33  1  0  0  0
M  END
> <minimizedAffinity>
-6.78848

> <CNNscore>
0.2627018690

> <CNNaffinity>
6.0575819016

> <CNN_VS>
1.5913380384

> <CNNaffinity_variance>
0.1386740506

$$$$
