


 36 40  0  0  0  0  0  0  0  0999 V2000
    8.4880    4.5792   23.4707 N   0  0  0  0  0  0  0  0  0  0  0  0
    7.7217    3.3403   23.8283 C   0  0  0  0  0  0  0  0  0  0  0  0
    8.3896    1.9990   23.7587 C   0  0  0  0  0  0  0  0  0  0  0  0
    8.9211    0.5965   23.7369 C   0  0  0  0  0  0  0  0  0  0  0  0
    9.9451   -0.0070   23.4849 O   0  0  0  0  0  0  0  0  0  0  0  0
    7.8172   -0.3243   24.1656 N   0  0  0  0  0  0  0  0  0  0  0  0
    6.6036    0.5092   24.4524 C   0  0  0  0  0  0  0  0  0  0  0  0
    6.9573    1.9451   24.2010 C   0  0  0  0  0  0  0  0  0  0  0  0
    9.8239    1.8966   23.3315 C   0  0  0  0  0  0  0  0  0  0  0  0
   10.4918    0.5554   23.2619 C   0  0  0  0  0  0  0  0  0  0  0  0
   11.9260    0.4531   22.8347 C   0  0  0  0  0  0  0  0  0  0  0  0
   12.5940   -0.8882   22.7651 Cl  0  0  0  0  0  0  0  0  0  0  0  0
   12.6923    1.6920   22.4772 C   0  0  0  0  0  0  0  0  0  0  0  0
   12.0244    3.0332   22.5467 C   0  0  0  0  0  0  0  0  0  0  0  0
   10.5902    3.1356   22.9739 C   0  0  0  0  0  0  0  0  0  0  0  0
    9.9222    4.4769   23.0435 C   0  0  0  0  0  0  0  0  0  0  0  0
   10.6885    5.7158   22.6860 O   0  0  0  0  0  0  0  0  0  0  0  0
    7.9107   -1.8165   24.2863 C   0  0  0  0  0  0  0  0  0  0  0  0
    6.8801   -2.6879   23.6317 C   0  0  0  0  0  0  0  0  0  0  0  0
    6.9736   -4.1801   23.7524 N   0  0  0  0  0  0  0  0  0  0  0  0
    8.0977   -4.8009   24.5277 C   0  0  0  0  0  0  0  0  0  0  0  0
    9.1283   -3.9294   25.1823 C   0  0  0  0  0  0  0  0  0  0  0  0
   10.2524   -4.5502   25.9576 C   0  0  0  0  0  0  0  0  0  0  0  0
   11.2830   -3.6787   26.6121 C   0  0  0  0  0  0  0  0  0  0  0  0
   11.1895   -2.1865   26.4914 C   0  0  0  0  0  0  0  0  0  0  0  0
   10.0654   -1.5657   25.7161 C   0  0  0  0  0  0  0  0  0  0  0  0
    9.0348   -2.4372   25.0616 C   0  0  0  0  0  0  0  0  0  0  0  0
    7.8200    5.9205   23.5403 C   0  0  0  0  0  0  0  0  0  0  0  0
    8.4308    7.5131   27.1237 C   0  0  0  0  0  0  0  0  0  0  0  0
    8.6960    6.8756   25.7921 N   0  0  0  0  0  0  0  0  0  0  0  0
    7.5548    6.5580   24.8720 C   0  0  0  0  0  0  0  0  0  0  0  0
    6.1482    6.8780   25.2835 O   0  0  0  0  0  0  0  0  0  0  0  0
    9.6192    6.6656   25.5220 H   0  0  0  0  0  0  0  0  0  0  0  0
    6.0398    3.1206   24.3633 C   0  0  0  0  0  0  0  0  0  0  0  0
    4.5763    2.9762   24.0679 O   0  0  0  0  0  0  0  0  0  0  0  0
    4.0255    3.4508   22.7559 C   0  0  0  0  0  0  0  0  0  0  0  0
 29 30  1  0  0  0
 30 31  1  0  0  0
 31 32  2  0  0  0
 31 28  1  0  0  0
 28  1  1  0  0  0
  1  2  1  0  0  0
  3  2  1  0  0  0
  3  4  1  0  0  0
  4  5  2  0  0  0
  4  6  1  0  0  0
  6 18  1  0  0  0
 18 19  2  0  0  0
 19 20  1  0  0  0
 20 21  2  0  0  0
 21 22  1  0  0  0
 22 23  2  0  0  0
 23 24  1  0  0  0
 24 25  2  0  0  0
 25 26  1  0  0  0
 26 27  2  0  0  0
  6  7  1  0  0  0
  7  8  1  0  0  0
  8 34  1  0  0  0
 34 35  1  0  0  0
 35 36  1  0  0  0
  3  9  1  0  0  0
  9 10  2  0  0  0
 10 11  1  0  0  0
 11 12  1  0  0  0
 11 13  2  0  0  0
 13 14  1  0  0  0
 14 15  2  0  0  0
 15 16  1  0  0  0
 16 17  2  0  0  0
 16  1  1  0  0  0
  8  3  1  0  0  0
 15  9  1  0  0  0
 27 18  1  0  0  0
 27 22  1  0  0  0
 30 33  1  0  0  0
M  END
> <minimizedAffinity>
-6.97579

> <CNNscore>
0.3594717979

> <CNNaffinity>
6.3939361572

> <CNN_VS>
2.2984397411

> <CNNaffinity_variance>
0.2138689756

$$$$



 36 40  0  0  0  0  0  0  0  0999 V2000
   10.2894    0.6363   23.6793 N   0  0  0  0  0  0  0  0  0  0  0  0
    8.9111    0.2386   24.1176 C   0  0  0  0  0  0  0  0  0  0  0  0
    8.7226   -0.9504   25.0124 C   0  0  0  0  0  0  0  0  0  0  0  0
    8.3800   -2.1091   25.9012 C   0  0  0  0  0  0  0  0  0  0  0  0
    8.9250   -3.0105   26.5069 O   0  0  0  0  0  0  0  0  0  0  0  0
    6.8906   -2.1341   26.0770 N   0  0  0  0  0  0  0  0  0  0  0  0
    6.3125   -0.9908   25.2968 C   0  0  0  0  0  0  0  0  0  0  0  0
    7.4448   -0.2593   24.6389 C   0  0  0  0  0  0  0  0  0  0  0  0
    9.9123   -1.7417   25.4690 C   0  0  0  0  0  0  0  0  0  0  0  0
    9.7238   -2.9307   26.3638 C   0  0  0  0  0  0  0  0  0  0  0  0
   10.9135   -3.7219   26.8203 C   0  0  0  0  0  0  0  0  0  0  0  0
   10.7250   -4.9110   27.7151 Cl  0  0  0  0  0  0  0  0  0  0  0  0
   12.2918   -3.3242   26.3820 C   0  0  0  0  0  0  0  0  0  0  0  0
   12.4804   -2.1352   25.4872 C   0  0  0  0  0  0  0  0  0  0  0  0
   11.2906   -1.3440   25.0307 C   0  0  0  0  0  0  0  0  0  0  0  0
   11.4792   -0.1549   24.1358 C   0  0  0  0  0  0  0  0  0  0  0  0
   12.8575    0.2428   23.6975 O   0  0  0  0  0  0  0  0  0  0  0  0
    6.1153   -3.1279   26.8902 C   0  0  0  0  0  0  0  0  0  0  0  0
    5.9805   -2.9419   28.3725 C   0  0  0  0  0  0  0  0  0  0  0  0
    5.2052   -3.9357   29.1857 N   0  0  0  0  0  0  0  0  0  0  0  0
    4.5648   -5.1156   28.5166 C   0  0  0  0  0  0  0  0  0  0  0  0
    4.6996   -5.3016   27.0342 C   0  0  0  0  0  0  0  0  0  0  0  0
    4.0590   -6.4815   26.3651 C   0  0  0  0  0  0  0  0  0  0  0  0
    4.1939   -6.6674   24.8828 C   0  0  0  0  0  0  0  0  0  0  0  0
    4.9692   -5.6736   24.0696 C   0  0  0  0  0  0  0  0  0  0  0  0
    5.6096   -4.4938   24.7387 C   0  0  0  0  0  0  0  0  0  0  0  0
    5.4748   -4.3078   26.2211 C   0  0  0  0  0  0  0  0  0  0  0  0
   10.4780    1.8254   22.7845 C   0  0  0  0  0  0  0  0  0  0  0  0
    7.9013    4.8225   23.1418 C   0  0  0  0  0  0  0  0  0  0  0  0
    9.0533    3.9030   23.4199 N   0  0  0  0  0  0  0  0  0  0  0  0
    9.3260    2.7449   22.5064 C   0  0  0  0  0  0  0  0  0  0  0  0
    8.4465    2.5063   21.3148 O   0  0  0  0  0  0  0  0  0  0  0  0
    9.6305    4.0596   24.2019 H   0  0  0  0  0  0  0  0  0  0  0  0
    7.3209    0.9510   23.7614 C   0  0  0  0  0  0  0  0  0  0  0  0
    5.9789    1.3567   23.2283 O   0  0  0  0  0  0  0  0  0  0  0  0
    5.4025    0.6546   22.0346 C   0  0  0  0  0  0  0  0  0  0  0  0
 29 30  1  0  0  0
 30 31  1  0  0  0
 31 32  2  0  0  0
 31 28  1  0  0  0
 28  1  1  0  0  0
  1  2  1  0  0  0
  3  2  1  0  0  0
  3  4  1  0  0  0
  4  5  2  0  0  0
  4  6  1  0  0  0
  6 18  1  0  0  0
 18 19  2  0  0  0
 19 20  1  0  0  0
 20 21  2  0  0  0
 21 22  1  0  0  0
 22 23  2  0  0  0
 23 24  1  0  0  0
 24 25  2  0  0  0
 25 26  1  0  0  0
 26 27  2  0  0  0
  6  7  1  0  0  0
  7  8  1  0  0  0
  8 34  1  0  0  0
 34 35  1  0  0  0
 35 36  1  0  0  0
  3  9  1  0  0  0
  9 10  2  0  0  0
 10 11  1  0  0  0
 11 12  1  0  0  0
 11 13  2  0  0  0
 13 14  1  0  0  0
 14 15  2  0  0  0
 15 16  1  0  0  0
 16 17  2  0  0  0
 16  1  1  0  0  0
  8  3  1  0  0  0
 15  9  1  0  0  0
 27 18  1  0  0  0
 27 22  1  0  0  0
 30 33  1  0  0  0
M  END
> <minimizedAffinity>
-7.54128

> <CNNscore>
0.3475841880

> <CNNaffinity>
6.3221650124

> <CNN_VS>
2.1974844933

> <CNNaffinity_variance>
0.2313505858

$$$$



 36 40  0  0  0  0  0  0  0  0999 V2000
    4.9839    1.4978   21.1433 N   0  0  0  0  0  0  0  0  0  0  0  0
    5.8719    0.3110   21.3735 C   0  0  0  0  0  0  0  0  0  0  0  0
    7.2611    0.5056   21.9049 C   0  0  0  0  0  0  0  0  0  0  0  0
    8.6659    0.5440   22.4291 C   0  0  0  0  0  0  0  0  0  0  0  0
    9.4977    1.3463   22.8045 O   0  0  0  0  0  0  0  0  0  0  0  0
    9.1733   -0.8658   22.4994 N   0  0  0  0  0  0  0  0  0  0  0  0
    8.0819   -1.7757   22.0187 C   0  0  0  0  0  0  0  0  0  0  0  0
    6.9001   -0.9281   21.6512 C   0  0  0  0  0  0  0  0  0  0  0  0
    7.7622    1.8869   22.2061 C   0  0  0  0  0  0  0  0  0  0  0  0
    9.1514    2.0815   22.7375 C   0  0  0  0  0  0  0  0  0  0  0  0
    9.6524    3.4628   23.0388 C   0  0  0  0  0  0  0  0  0  0  0  0
   11.0416    3.6574   23.5702 Cl  0  0  0  0  0  0  0  0  0  0  0  0
    8.7644    4.6496   22.8086 C   0  0  0  0  0  0  0  0  0  0  0  0
    7.3753    4.4550   22.2772 C   0  0  0  0  0  0  0  0  0  0  0  0
    6.8742    3.0737   21.9760 C   0  0  0  0  0  0  0  0  0  0  0  0
    5.4850    2.8791   21.4445 C   0  0  0  0  0  0  0  0  0  0  0  0
    4.5970    4.0659   21.2144 O   0  0  0  0  0  0  0  0  0  0  0  0
   10.5332   -1.2911   22.9682 C   0  0  0  0  0  0  0  0  0  0  0  0
   11.7446   -0.9724   22.1430 C   0  0  0  0  0  0  0  0  0  0  0  0
   13.1045   -1.3977   22.6118 N   0  0  0  0  0  0  0  0  0  0  0  0
   13.2530   -2.1416   23.9058 C   0  0  0  0  0  0  0  0  0  0  0  0
   12.0416   -2.4603   24.7310 C   0  0  0  0  0  0  0  0  0  0  0  0
   12.1902   -3.2043   26.0251 C   0  0  0  0  0  0  0  0  0  0  0  0
   10.9787   -3.5229   26.8502 C   0  0  0  0  0  0  0  0  0  0  0  0
    9.6188   -3.0976   26.3814 C   0  0  0  0  0  0  0  0  0  0  0  0
    9.4703   -2.3537   25.0874 C   0  0  0  0  0  0  0  0  0  0  0  0
   10.6817   -2.0350   24.2622 C   0  0  0  0  0  0  0  0  0  0  0  0
    3.5947    1.3032   20.6119 C   0  0  0  0  0  0  0  0  0  0  0  0
    1.2386    2.0040   23.7275 C   0  0  0  0  0  0  0  0  0  0  0  0
    2.4207    1.5663   22.9146 N   0  0  0  0  0  0  0  0  0  0  0  0
    2.4126    1.7409   21.4248 C   0  0  0  0  0  0  0  0  0  0  0  0
    1.2222    2.3534   20.7480 O   0  0  0  0  0  0  0  0  0  0  0  0
    3.2020    1.1643   23.3588 H   0  0  0  0  0  0  0  0  0  0  0  0
    5.5878   -1.4267   21.1229 C   0  0  0  0  0  0  0  0  0  0  0  0
    5.2379   -2.8809   21.2351 O   0  0  0  0  0  0  0  0  0  0  0  0
    5.5335   -3.6280   22.5018 C   0  0  0  0  0  0  0  0  0  0  0  0
 29 30  1  0  0  0
 30 31  1  0  0  0
 31 32  2  0  0  0
 31 28  1  0  0  0
 28  1  1  0  0  0
  1  2  1  0  0  0
  3  2  1  0  0  0
  3  4  1  0  0  0
  4  5  2  0  0  0
  4  6  1  0  0  0
  6 18  1  0  0  0
 18 19  2  0  0  0
 19 20  1  0  0  0
 20 21  2  0  0  0
 21 22  1  0  0  0
 22 23  2  0  0  0
 23 24  1  0  0  0
 24 25  2  0  0  0
 25 26  1  0  0  0
 26 27  2  0  0  0
  6  7  1  0  0  0
  7  8  1  0  0  0
  8 34  1  0  0  0
 34 35  1  0  0  0
 35 36  1  0  0  0
  3  9  1  0  0  0
  9 10  2  0  0  0
 10 11  1  0  0  0
 11 12  1  0  0  0
 11 13  2  0  0  0
 13 14  1  0  0  0
 14 15  2  0  0  0
 15 16  1  0  0  0
 16 17  2  0  0  0
 16  1  1  0  0  0
  8  3  1  0  0  0
 15  9  1  0  0  0
 27 18  1  0  0  0
 27 22  1  0  0  0
 30 33  1  0  0  0
M  END
> <minimizedAffinity>
-7.00823

> <CNNscore>
0.3080308437

> <CNNaffinity>
6.4741220474

> <CNN_VS>
1.9942293167

> <CNNaffinity_variance>
0.2750987709

$$$$



 36 40  0  0  0  0  0  0  0  0999 V2000
   10.8146    1.6527   22.7363 N   0  0  0  0  0  0  0  0  0  0  0  0
    9.4201    1.3073   23.1674 C   0  0  0  0  0  0  0  0  0  0  0  0
    9.1838    0.1356   24.0737 C   0  0  0  0  0  0  0  0  0  0  0  0
    8.7947   -1.0006   24.9724 C   0  0  0  0  0  0  0  0  0  0  0  0
    9.3036   -1.9132   25.5925 O   0  0  0  0  0  0  0  0  0  0  0  0
    7.3039   -0.9727   25.1360 N   0  0  0  0  0  0  0  0  0  0  0  0
    6.7716    0.1808   24.3384 C   0  0  0  0  0  0  0  0  0  0  0  0
    7.9334    0.8657   23.6819 C   0  0  0  0  0  0  0  0  0  0  0  0
   10.3421   -0.6906   24.5489 C   0  0  0  0  0  0  0  0  0  0  0  0
   10.1058   -1.8623   25.4552 C   0  0  0  0  0  0  0  0  0  0  0  0
   11.2640   -2.6885   25.9303 C   0  0  0  0  0  0  0  0  0  0  0  0
   11.0277   -3.8602   26.8367 Cl  0  0  0  0  0  0  0  0  0  0  0  0
   12.6586   -2.3430   25.4992 C   0  0  0  0  0  0  0  0  0  0  0  0
   12.8949   -1.1714   24.5929 C   0  0  0  0  0  0  0  0  0  0  0  0
   11.7366   -0.3452   24.1178 C   0  0  0  0  0  0  0  0  0  0  0  0
   11.9729    0.8265   23.2114 C   0  0  0  0  0  0  0  0  0  0  0  0
   13.3674    1.1719   22.7803 O   0  0  0  0  0  0  0  0  0  0  0  0
    6.4886   -1.9302   25.9536 C   0  0  0  0  0  0  0  0  0  0  0  0
    6.0813   -1.5655   27.3505 C   0  0  0  0  0  0  0  0  0  0  0  0
    5.2660   -2.5230   28.1681 N   0  0  0  0  0  0  0  0  0  0  0  0
    4.8580   -3.8451   27.5888 C   0  0  0  0  0  0  0  0  0  0  0  0
    5.2652   -4.2097   26.1919 C   0  0  0  0  0  0  0  0  0  0  0  0
    4.8571   -5.5319   25.6127 C   0  0  0  0  0  0  0  0  0  0  0  0
    5.2644   -5.8964   24.2158 C   0  0  0  0  0  0  0  0  0  0  0  0
    6.0797   -4.9389   23.3982 C   0  0  0  0  0  0  0  0  0  0  0  0
    6.4878   -3.6169   23.9775 C   0  0  0  0  0  0  0  0  0  0  0  0
    6.0805   -3.2522   25.3743 C   0  0  0  0  0  0  0  0  0  0  0  0
   11.0509    2.8244   21.8299 C   0  0  0  0  0  0  0  0  0  0  0  0
   10.6865    6.4771   23.3381 C   0  0  0  0  0  0  0  0  0  0  0  0
   10.3284    5.1408   22.7584 N   0  0  0  0  0  0  0  0  0  0  0  0
   11.4090    4.1607   22.4096 C   0  0  0  0  0  0  0  0  0  0  0  0
   12.8478    4.5169   22.6405 O   0  0  0  0  0  0  0  0  0  0  0  0
    9.3842    4.9071   22.6069 H   0  0  0  0  0  0  0  0  0  0  0  0
    7.8581    2.0695   22.7901 C   0  0  0  0  0  0  0  0  0  0  0  0
    7.1694    1.9763   21.4609 O   0  0  0  0  0  0  0  0  0  0  0  0
    5.7302    2.3788   21.3319 C   0  0  0  0  0  0  0  0  0  0  0  0
 29 30  1  0  0  0
 30 31  1  0  0  0
 31 32  2  0  0  0
 31 28  1  0  0  0
 28  1  1  0  0  0
  1  2  1  0  0  0
  3  2  1  0  0  0
  3  4  1  0  0  0
  4  5  2  0  0  0
  4  6  1  0  0  0
  6 18  1  0  0  0
 18 19  2  0  0  0
 19 20  1  0  0  0
 20 21  2  0  0  0
 21 22  1  0  0  0
 22 23  2  0  0  0
 23 24  1  0  0  0
 24 25  2  0  0  0
 25 26  1  0  0  0
 26 27  2  0  0  0
  6  7  1  0  0  0
  7  8  1  0  0  0
  8 34  1  0  0  0
 34 35  1  0  0  0
 35 36  1  0  0  0
  3  9  1  0  0  0
  9 10  2  0  0  0
 10 11  1  0  0  0
 11 12  1  0  0  0
 11 13  2  0  0  0
 13 14  1  0  0  0
 14 15  2  0  0  0
 15 16  1  0  0  0
 16 17  2  0  0  0
 16  1  1  0  0  0
  8  3  1  0  0  0
 15  9  1  0  0  0
 27 18  1  0  0  0
 27 22  1  0  0  0
 30 33  1  0  0  0
M  END
> <minimizedAffinity>
-7.80249

> <CNNscore>
0.3049758077

> <CNNaffinity>
6.5533127785

> <CNN_VS>
1.9986019135

> <CNNaffinity_variance>
0.2579525709

$$$$



 36 40  0  0  0  0  0  0  0  0999 V2000
    4.0301   -5.1183   26.0691 N   0  0  0  0  0  0  0  0  0  0  0  0
    5.3497   -4.9656   25.3724 C   0  0  0  0  0  0  0  0  0  0  0  0
    6.1336   -3.6954   25.5208 C   0  0  0  0  0  0  0  0  0  0  0  0
    7.0252   -2.4904   25.5753 C   0  0  0  0  0  0  0  0  0  0  0  0
    7.0665   -1.3850   26.0780 O   0  0  0  0  0  0  0  0  0  0  0  0
    8.2360   -2.7712   24.7355 N   0  0  0  0  0  0  0  0  0  0  0  0
    8.0927   -4.1498   24.1619 C   0  0  0  0  0  0  0  0  0  0  0  0
    6.7934   -4.7210   24.6473 C   0  0  0  0  0  0  0  0  0  0  0  0
    5.5979   -2.5778   26.3658 C   0  0  0  0  0  0  0  0  0  0  0  0
    6.3818   -1.3076   26.5142 C   0  0  0  0  0  0  0  0  0  0  0  0
    5.8461   -0.1901   27.3592 C   0  0  0  0  0  0  0  0  0  0  0  0
    6.6300    1.0802   27.5076 Cl  0  0  0  0  0  0  0  0  0  0  0  0
    4.5265   -0.3427   28.0558 C   0  0  0  0  0  0  0  0  0  0  0  0
    3.7426   -1.6129   27.9075 C   0  0  0  0  0  0  0  0  0  0  0  0
    4.2783   -2.7305   27.0625 C   0  0  0  0  0  0  0  0  0  0  0  0
    3.4944   -4.0008   26.9141 C   0  0  0  0  0  0  0  0  0  0  0  0
    2.1748   -4.1534   27.6107 O   0  0  0  0  0  0  0  0  0  0  0  0
    9.3877   -1.8374   24.5090 C   0  0  0  0  0  0  0  0  0  0  0  0
    9.2053   -0.6131   23.6616 C   0  0  0  0  0  0  0  0  0  0  0  0
   10.3571    0.3207   23.4352 N   0  0  0  0  0  0  0  0  0  0  0  0
   11.6913    0.0303   24.0560 C   0  0  0  0  0  0  0  0  0  0  0  0
   11.8737   -1.1939   24.9034 C   0  0  0  0  0  0  0  0  0  0  0  0
   13.2081   -1.4843   25.5243 C   0  0  0  0  0  0  0  0  0  0  0  0
   13.3904   -2.7085   26.3716 C   0  0  0  0  0  0  0  0  0  0  0  0
   12.2386   -3.6424   26.5981 C   0  0  0  0  0  0  0  0  0  0  0  0
   10.9044   -3.3520   25.9772 C   0  0  0  0  0  0  0  0  0  0  0  0
   10.7220   -2.1278   25.1299 C   0  0  0  0  0  0  0  0  0  0  0  0
    3.2462   -6.3886   25.9207 C   0  0  0  0  0  0  0  0  0  0  0  0
    1.0068   -6.4435   22.6447 C   0  0  0  0  0  0  0  0  0  0  0  0
    2.2115   -6.4056   23.5376 N   0  0  0  0  0  0  0  0  0  0  0  0
    2.0415   -6.4265   25.0278 C   0  0  0  0  0  0  0  0  0  0  0  0
    0.6668   -6.4853   25.6251 O   0  0  0  0  0  0  0  0  0  0  0  0
    3.1138   -6.3671   23.1456 H   0  0  0  0  0  0  0  0  0  0  0  0
    6.2493   -6.0793   24.3171 C   0  0  0  0  0  0  0  0  0  0  0  0
    6.7193   -6.7967   23.0866 O   0  0  0  0  0  0  0  0  0  0  0  0
    6.2776   -6.3296   21.7313 C   0  0  0  0  0  0  0  0  0  0  0  0
 29 30  1  0  0  0
 30 31  1  0  0  0
 31 32  2  0  0  0
 31 28  1  0  0  0
 28  1  1  0  0  0
  1  2  1  0  0  0
  3  2  1  0  0  0
  3  4  1  0  0  0
  4  5  2  0  0  0
  4  6  1  0  0  0
  6 18  1  0  0  0
 18 19  2  0  0  0
 19 20  1  0  0  0
 20 21  2  0  0  0
 21 22  1  0  0  0
 22 23  2  0  0  0
 23 24  1  0  0  0
 24 25  2  0  0  0
 25 26  1  0  0  0
 26 27  2  0  0  0
  6  7  1  0  0  0
  7  8  1  0  0  0
  8 34  1  0  0  0
 34 35  1  0  0  0
 35 36  1  0  0  0
  3  9  1  0  0  0
  9 10  2  0  0  0
 10 11  1  0  0  0
 11 12  1  0  0  0
 11 13  2  0  0  0
 13 14  1  0  0  0
 14 15  2  0  0  0
 15 16  1  0  0  0
 16 17  2  0  0  0
 16  1  1  0  0  0
  8  3  1  0  0  0
 15  9  1  0  0  0
 27 18  1  0  0  0
 27 22  1  0  0  0
 30 33  1  0  0  0
M  END
> <minimizedAffinity>
-7.21363

> <CNNscore>
0.2890213728

> <CNNaffinity>
6.1490349770

> <CNN_VS>
1.7772024870

> <CNNaffinity_variance>
0.0767505169

$$$$



 36 40  0  0  0  0  0  0  0  0999 V2000
   10.6884    1.5407   22.8361 N   0  0  0  0  0  0  0  0  0  0  0  0
    9.2946    1.2420   23.3030 C   0  0  0  0  0  0  0  0  0  0  0  0
    9.0466    0.0963   24.2389 C   0  0  0  0  0  0  0  0  0  0  0  0
    8.6466   -1.0100   25.1695 C   0  0  0  0  0  0  0  0  0  0  0  0
    9.1441   -1.9228   25.7985 O   0  0  0  0  0  0  0  0  0  0  0  0
    7.1608   -0.9386   25.3630 N   0  0  0  0  0  0  0  0  0  0  0  0
    6.6425    0.2119   24.5520 C   0  0  0  0  0  0  0  0  0  0  0  0
    7.8080    0.8515   23.8572 C   0  0  0  0  0  0  0  0  0  0  0  0
   10.1923   -0.7507   24.7078 C   0  0  0  0  0  0  0  0  0  0  0  0
    9.9443   -1.8964   25.6437 C   0  0  0  0  0  0  0  0  0  0  0  0
   11.0900   -2.7433   26.1125 C   0  0  0  0  0  0  0  0  0  0  0  0
   10.8420   -3.8891   27.0484 Cl  0  0  0  0  0  0  0  0  0  0  0  0
   12.4838   -2.4446   25.6456 C   0  0  0  0  0  0  0  0  0  0  0  0
   12.7319   -1.2989   24.7097 C   0  0  0  0  0  0  0  0  0  0  0  0
   11.5862   -0.4520   24.2408 C   0  0  0  0  0  0  0  0  0  0  0  0
   11.8342    0.6937   23.3049 C   0  0  0  0  0  0  0  0  0  0  0  0
   13.2280    0.9925   22.8380 O   0  0  0  0  0  0  0  0  0  0  0  0
    6.3379   -1.8565   26.2175 C   0  0  0  0  0  0  0  0  0  0  0  0
    6.0648   -3.2599   25.7636 C   0  0  0  0  0  0  0  0  0  0  0  0
    5.2418   -4.1778   26.6181 N   0  0  0  0  0  0  0  0  0  0  0  0
    4.6920   -3.6923   27.9265 C   0  0  0  0  0  0  0  0  0  0  0  0
    4.9651   -2.2890   28.3805 C   0  0  0  0  0  0  0  0  0  0  0  0
    4.4153   -1.8035   29.6890 C   0  0  0  0  0  0  0  0  0  0  0  0
    4.6885   -0.4002   30.1428 C   0  0  0  0  0  0  0  0  0  0  0  0
    5.5114    0.5177   29.2883 C   0  0  0  0  0  0  0  0  0  0  0  0
    6.0612    0.0323   27.9799 C   0  0  0  0  0  0  0  0  0  0  0  0
    5.7881   -1.3711   27.5260 C   0  0  0  0  0  0  0  0  0  0  0  0
   10.9365    2.6864   21.9001 C   0  0  0  0  0  0  0  0  0  0  0  0
   10.7048    6.3462   23.4176 C   0  0  0  0  0  0  0  0  0  0  0  0
   10.2975    5.0087   22.8743 N   0  0  0  0  0  0  0  0  0  0  0  0
   11.3438    4.0239   22.4434 C   0  0  0  0  0  0  0  0  0  0  0  0
   12.7974    4.3767   22.5559 O   0  0  0  0  0  0  0  0  0  0  0  0
    9.3435    4.7771   22.8005 H   0  0  0  0  0  0  0  0  0  0  0  0
    7.7457    2.0379   22.9416 C   0  0  0  0  0  0  0  0  0  0  0  0
    6.5772    2.2116   22.0174 O   0  0  0  0  0  0  0  0  0  0  0  0
    6.3557    1.2387   20.8973 C   0  0  0  0  0  0  0  0  0  0  0  0
 29 30  1  0  0  0
 30 31  1  0  0  0
 31 32  2  0  0  0
 31 28  1  0  0  0
 28  1  1  0  0  0
  1  2  1  0  0  0
  3  2  1  0  0  0
  3  4  1  0  0  0
  4  5  2  0  0  0
  4  6  1  0  0  0
  6 18  1  0  0  0
 18 19  2  0  0  0
 19 20  1  0  0  0
 20 21  2  0  0  0
 21 22  1  0  0  0
 22 23  2  0  0  0
 23 24  1  0  0  0
 24 25  2  0  0  0
 25 26  1  0  0  0
 26 27  2  0  0  0
  6  7  1  0  0  0
  7  8  1  0  0  0
  8 34  1  0  0  0
 34 35  1  0  0  0
 35 36  1  0  0  0
  3  9  1  0  0  0
  9 10  2  0  0  0
 10 11  1  0  0  0
 11 12  1  0  0  0
 11 13  2  0  0  0
 13 14  1  0  0  0
 14 15  2  0  0  0
 15 16  1  0  0  0
 16 17  2  0  0  0
 16  1  1  0  0  0
  8  3  1  0  0  0
 15  9  1  0  0  0
 27 18  1  0  0  0
 27 22  1  0  0  0
 30 33  1  0  0  0
M  END
> <minimizedAffinity>
-7.50073

> <CNNscore>
0.2857357860

> <CNNaffinity>
6.4012765884

> <CNN_VS>
1.8290737867

> <CNNaffinity_variance>
0.1421246529

$$$$



 36 40  0  0  0  0  0  0  0  0999 V2000
    7.4956    4.5227   23.8031 N   0  0  0  0  0  0  0  0  0  0  0  0
    8.2461    3.2684   23.4662 C   0  0  0  0  0  0  0  0  0  0  0  0
    8.0063    2.0159   24.2558 C   0  0  0  0  0  0  0  0  0  0  0  0
    7.8729    0.6944   24.9529 C   0  0  0  0  0  0  0  0  0  0  0  0
    7.2566    0.1817   25.8659 O   0  0  0  0  0  0  0  0  0  0  0  0
    8.8061   -0.2754   24.2906 N   0  0  0  0  0  0  0  0  0  0  0  0
    9.5164    0.4468   23.1842 C   0  0  0  0  0  0  0  0  0  0  0  0
    9.0220    1.8628   23.1628 C   0  0  0  0  0  0  0  0  0  0  0  0
    7.0160    2.0176   25.3825 C   0  0  0  0  0  0  0  0  0  0  0  0
    6.7762    0.7651   26.1722 C   0  0  0  0  0  0  0  0  0  0  0  0
    5.7858    0.7668   27.2987 C   0  0  0  0  0  0  0  0  0  0  0  0
    5.5460   -0.4858   28.0885 Cl  0  0  0  0  0  0  0  0  0  0  0  0
    5.0353    2.0211   27.6357 C   0  0  0  0  0  0  0  0  0  0  0  0
    5.2751    3.2736   26.8460 C   0  0  0  0  0  0  0  0  0  0  0  0
    6.2655    3.2719   25.7194 C   0  0  0  0  0  0  0  0  0  0  0  0
    6.5053    4.5244   24.9297 C   0  0  0  0  0  0  0  0  0  0  0  0
    5.7548    5.7787   25.2666 O   0  0  0  0  0  0  0  0  0  0  0  0
    8.9958   -1.7146   24.6683 C   0  0  0  0  0  0  0  0  0  0  0  0
    7.8935   -2.7038   24.4312 C   0  0  0  0  0  0  0  0  0  0  0  0
    8.0831   -4.1430   24.8089 N   0  0  0  0  0  0  0  0  0  0  0  0
    9.3752   -4.5930   25.4239 C   0  0  0  0  0  0  0  0  0  0  0  0
   10.4775   -3.6037   25.6610 C   0  0  0  0  0  0  0  0  0  0  0  0
   11.7696   -4.0537   26.2760 C   0  0  0  0  0  0  0  0  0  0  0  0
   12.8719   -3.0644   26.5132 C   0  0  0  0  0  0  0  0  0  0  0  0
   12.6822   -1.6252   26.1354 C   0  0  0  0  0  0  0  0  0  0  0  0
   11.3902   -1.1753   25.5205 C   0  0  0  0  0  0  0  0  0  0  0  0
   10.2878   -2.1645   25.2833 C   0  0  0  0  0  0  0  0  0  0  0  0
    7.7355    5.7753   23.0134 C   0  0  0  0  0  0  0  0  0  0  0  0
   11.2917    7.4389   22.4340 C   0  0  0  0  0  0  0  0  0  0  0  0
   10.0498    6.6309   22.1999 N   0  0  0  0  0  0  0  0  0  0  0  0
    8.9774    6.5832   23.2475 C   0  0  0  0  0  0  0  0  0  0  0  0
    9.1469    7.3436   24.5294 O   0  0  0  0  0  0  0  0  0  0  0  0
    9.9385    6.1319   21.3585 H   0  0  0  0  0  0  0  0  0  0  0  0
    9.4656    2.9372   22.2146 C   0  0  0  0  0  0  0  0  0  0  0  0
   10.9268    3.1448   21.9468 O   0  0  0  0  0  0  0  0  0  0  0  0
   11.8254    3.6470   23.0379 C   0  0  0  0  0  0  0  0  0  0  0  0
 29 30  1  0  0  0
 30 31  1  0  0  0
 31 32  2  0  0  0
 31 28  1  0  0  0
 28  1  1  0  0  0
  1  2  1  0  0  0
  3  2  1  0  0  0
  3  4  1  0  0  0
  4  5  2  0  0  0
  4  6  1  0  0  0
  6 18  1  0  0  0
 18 19  2  0  0  0
 19 20  1  0  0  0
 20 21  2  0  0  0
 21 22  1  0  0  0
 22 23  2  0  0  0
 23 24  1  0  0  0
 24 25  2  0  0  0
 25 26  1  0  0  0
 26 27  2  0  0  0
  6  7  1  0  0  0
  7  8  1  0  0  0
  8 34  1  0  0  0
 34 35  1  0  0  0
 35 36  1  0  0  0
  3  9  1  0  0  0
  9 10  2  0  0  0
 10 11  1  0  0  0
 11 12  1  0  0  0
 11 13  2  0  0  0
 13 14  1  0  0  0
 14 15  2  0  0  0
 15 16  1  0  0  0
 16 17  2  0  0  0
 16  1  1  0  0  0
  8  3  1  0  0  0
 15  9  1  0  0  0
 27 18  1  0  0  0
 27 22  1  0  0  0
 30 33  1  0  0  0
M  END
> <minimizedAffinity>
-7.54126

> <CNNscore>
0.2855289876

> <CNNaffinity>
6.0928983688

> <CNN_VS>
1.7396991253

> <CNNaffinity_variance>
0.2734864950

$$$$



 36 40  0  0  0  0  0  0  0  0999 V2000
    6.2749   -4.6739   22.9629 N   0  0  0  0  0  0  0  0  0  0  0  0
    6.2829   -3.2544   22.4781 C   0  0  0  0  0  0  0  0  0  0  0  0
    7.2886   -2.2824   23.0200 C   0  0  0  0  0  0  0  0  0  0  0  0
    8.2291   -1.2031   23.4677 C   0  0  0  0  0  0  0  0  0  0  0  0
    9.1635   -1.0386   24.2268 O   0  0  0  0  0  0  0  0  0  0  0  0
    7.8793    0.0533   22.7268 N   0  0  0  0  0  0  0  0  0  0  0  0
    6.7225   -0.2495   21.8212 C   0  0  0  0  0  0  0  0  0  0  0  0
    6.3574   -1.6931   22.0024 C   0  0  0  0  0  0  0  0  0  0  0  0
    8.2865   -2.7299   24.0467 C   0  0  0  0  0  0  0  0  0  0  0  0
    9.2923   -1.7580   24.5886 C   0  0  0  0  0  0  0  0  0  0  0  0
   10.2901   -2.2055   25.6152 C   0  0  0  0  0  0  0  0  0  0  0  0
   11.2959   -1.2335   26.1571 Cl  0  0  0  0  0  0  0  0  0  0  0  0
   10.2821   -3.6249   26.1000 C   0  0  0  0  0  0  0  0  0  0  0  0
    9.2764   -4.5969   25.5581 C   0  0  0  0  0  0  0  0  0  0  0  0
    8.2786   -4.1494   24.5315 C   0  0  0  0  0  0  0  0  0  0  0  0
    7.2727   -5.1214   23.9896 C   0  0  0  0  0  0  0  0  0  0  0  0
    7.2648   -6.5409   24.4744 O   0  0  0  0  0  0  0  0  0  0  0  0
    8.5657    1.3797   22.8669 C   0  0  0  0  0  0  0  0  0  0  0  0
    7.7585    2.6194   23.1150 C   0  0  0  0  0  0  0  0  0  0  0  0
    8.4449    3.9458   23.2551 N   0  0  0  0  0  0  0  0  0  0  0  0
    9.9385    4.0324   23.1471 C   0  0  0  0  0  0  0  0  0  0  0  0
   10.7457    2.7926   22.8990 C   0  0  0  0  0  0  0  0  0  0  0  0
   12.2393    2.8793   22.7910 C   0  0  0  0  0  0  0  0  0  0  0  0
   13.0464    1.6395   22.5429 C   0  0  0  0  0  0  0  0  0  0  0  0
   12.3600    0.3132   22.4028 C   0  0  0  0  0  0  0  0  0  0  0  0
   10.8664    0.2265   22.5108 C   0  0  0  0  0  0  0  0  0  0  0  0
   10.0592    1.4663   22.7589 C   0  0  0  0  0  0  0  0  0  0  0  0
    5.2691   -5.6459   22.4210 C   0  0  0  0  0  0  0  0  0  0  0  0
    2.9259   -6.2375   25.5690 C   0  0  0  0  0  0  0  0  0  0  0  0
    4.1113   -5.8437   24.7384 N   0  0  0  0  0  0  0  0  0  0  0  0
    4.0837   -6.0397   23.2516 C   0  0  0  0  0  0  0  0  0  0  0  0
    2.8707   -6.6296   22.5952 O   0  0  0  0  0  0  0  0  0  0  0  0
    4.9074   -5.4565   25.1692 H   0  0  0  0  0  0  0  0  0  0  0  0
    5.2548   -2.4197   21.2909 C   0  0  0  0  0  0  0  0  0  0  0  0
    4.8661   -2.0159   19.8996 O   0  0  0  0  0  0  0  0  0  0  0  0
    5.7366   -1.0746   19.1210 C   0  0  0  0  0  0  0  0  0  0  0  0
 29 30  1  0  0  0
 30 31  1  0  0  0
 31 32  2  0  0  0
 31 28  1  0  0  0
 28  1  1  0  0  0
  1  2  1  0  0  0
  3  2  1  0  0  0
  3  4  1  0  0  0
  4  5  2  0  0  0
  4  6  1  0  0  0
  6 18  1  0  0  0
 18 19  2  0  0  0
 19 20  1  0  0  0
 20 21  2  0  0  0
 21 22  1  0  0  0
 22 23  2  0  0  0
 23 24  1  0  0  0
 24 25  2  0  0  0
 25 26  1  0  0  0
 26 27  2  0  0  0
  6  7  1  0  0  0
  7  8  1  0  0  0
  8 34  1  0  0  0
 34 35  1  0  0  0
 35 36  1  0  0  0
  3  9  1  0  0  0
  9 10  2  0  0  0
 10 11  1  0  0  0
 11 12  1  0  0  0
 11 13  2  0  0  0
 13 14  1  0  0  0
 14 15  2  0  0  0
 15 16  1  0  0  0
 16 17  2  0  0  0
 16  1  1  0  0  0
  8  3  1  0  0  0
 15  9  1  0  0  0
 27 18  1  0  0  0
 27 22  1  0  0  0
 30 33  1  0  0  0
M  END
> <minimizedAffinity>
-6.76238

> <CNNscore>
0.2628247142

> <CNNaffinity>
6.2785215378

> <CNN_VS>
1.6501506567

> <CNNaffinity_variance>
0.0940675288

$$$$



 36 40  0  0  0  0  0  0  0  0999 V2000
    4.8639    1.2435   22.3585 N   0  0  0  0  0  0  0  0  0  0  0  0
    6.2310    0.6541   22.5417 C   0  0  0  0  0  0  0  0  0  0  0  0
    6.5253   -0.1999   23.7392 C   0  0  0  0  0  0  0  0  0  0  0  0
    6.9652   -1.0688   24.8800 C   0  0  0  0  0  0  0  0  0  0  0  0
    6.5247   -1.5574   25.9016 O   0  0  0  0  0  0  0  0  0  0  0  0
    8.4044   -1.4298   24.6596 N   0  0  0  0  0  0  0  0  0  0  0  0
    8.8539   -0.7840   23.3826 C   0  0  0  0  0  0  0  0  0  0  0  0
    7.6926   -0.0239   22.8138 C   0  0  0  0  0  0  0  0  0  0  0  0
    5.4524   -0.4645   24.7536 C   0  0  0  0  0  0  0  0  0  0  0  0
    5.7466   -1.3185   25.9511 C   0  0  0  0  0  0  0  0  0  0  0  0
    4.6738   -1.5831   26.9654 C   0  0  0  0  0  0  0  0  0  0  0  0
    4.9680   -2.4371   28.1630 Cl  0  0  0  0  0  0  0  0  0  0  0  0
    3.3066   -0.9937   26.7822 C   0  0  0  0  0  0  0  0  0  0  0  0
    3.0124   -0.1397   25.5847 C   0  0  0  0  0  0  0  0  0  0  0  0
    4.0852    0.1248   24.5704 C   0  0  0  0  0  0  0  0  0  0  0  0
    3.7910    0.9789   23.3728 C   0  0  0  0  0  0  0  0  0  0  0  0
    2.4239    1.5682   23.1896 O   0  0  0  0  0  0  0  0  0  0  0  0
    9.2461   -2.2862   25.5585 C   0  0  0  0  0  0  0  0  0  0  0  0
    8.5945   -3.2820   26.4717 C   0  0  0  0  0  0  0  0  0  0  0  0
    9.4362   -4.1384   27.3705 N   0  0  0  0  0  0  0  0  0  0  0  0
   10.9297   -3.9990   27.3562 C   0  0  0  0  0  0  0  0  0  0  0  0
   11.5813   -3.0033   26.4431 C   0  0  0  0  0  0  0  0  0  0  0  0
   13.0749   -2.8640   26.4288 C   0  0  0  0  0  0  0  0  0  0  0  0
   13.7264   -1.8682   25.5156 C   0  0  0  0  0  0  0  0  0  0  0  0
   12.8846   -1.0118   24.6167 C   0  0  0  0  0  0  0  0  0  0  0  0
   11.3912   -1.1511   24.6310 C   0  0  0  0  0  0  0  0  0  0  0  0
   10.7396   -2.1469   25.5442 C   0  0  0  0  0  0  0  0  0  0  0  0
    4.5697    2.0975   21.1609 C   0  0  0  0  0  0  0  0  0  0  0  0
    5.3061   -0.4114   18.1754 C   0  0  0  0  0  0  0  0  0  0  0  0
    5.2898    0.1915   19.5488 N   0  0  0  0  0  0  0  0  0  0  0  0
    4.5860    1.4945   19.7875 C   0  0  0  0  0  0  0  0  0  0  0  0
    3.8986    2.1945   18.6528 O   0  0  0  0  0  0  0  0  0  0  0  0
    5.7409   -0.2679   20.2935 H   0  0  0  0  0  0  0  0  0  0  0  0
    7.6977    0.7725   21.5426 C   0  0  0  0  0  0  0  0  0  0  0  0
    8.6427    1.9265   21.3843 O   0  0  0  0  0  0  0  0  0  0  0  0
    9.2504    2.5699   22.5953 C   0  0  0  0  0  0  0  0  0  0  0  0
 29 30  1  0  0  0
 30 31  1  0  0  0
 31 32  2  0  0  0
 31 28  1  0  0  0
 28  1  1  0  0  0
  1  2  1  0  0  0
  3  2  1  0  0  0
  3  4  1  0  0  0
  4  5  2  0  0  0
  4  6  1  0  0  0
  6 18  1  0  0  0
 18 19  2  0  0  0
 19 20  1  0  0  0
 20 21  2  0  0  0
 21 22  1  0  0  0
 22 23  2  0  0  0
 23 24  1  0  0  0
 24 25  2  0  0  0
 25 26  1  0  0  0
 26 27  2  0  0  0
  6  7  1  0  0  0
  7  8  1  0  0  0
  8 34  1  0  0  0
 34 35  1  0  0  0
 35 36  1  0  0  0
  3  9  1  0  0  0
  9 10  2  0  0  0
 10 11  1  0  0  0
 11 12  1  0  0  0
 11 13  2  0  0  0
 13 14  1  0  0  0
 14 15  2  0  0  0
 15 16  1  0  0  0
 16 17  2  0  0  0
 16  1  1  0  0  0
  8  3  1  0  0  0
 15  9  1  0  0  0
 27 18  1  0  0  0
 27 22  1  0  0  0
 30 33  1  0  0  0
M  END
> <minimizedAffinity>
-7.13273

> <CNNscore>
0.2303398699

> <CNNaffinity>
6.1682219505

> <CNN_VS>
1.4207874537

> <CNNaffinity_variance>
0.0236992724

$$$$
