


 35 40  0  0  0  0  0  0  0  0999 V2000
   11.6208   -1.4913   25.1827 C   0  0  0  0  0  0  0  0  0  0  0  0
   10.8349   -0.5267   24.3448 C   0  0  0  0  0  0  0  0  0  0  0  0
   11.5571    0.7750   24.1602 C   0  0  0  0  0  0  0  0  0  0  0  0
   10.6967    1.6665   23.3146 N   0  0  0  0  0  0  0  0  0  0  0  0
    9.4428    0.9158   22.9767 C   0  0  0  0  0  0  0  0  0  0  0  0
    8.3035    1.4303   22.1476 O   0  0  0  0  0  0  0  0  0  0  0  0
    9.5282   -0.4397   23.6134 C   0  0  0  0  0  0  0  0  0  0  0  0
    8.2637   -0.2071   22.8409 C   0  0  0  0  0  0  0  0  0  0  0  0
    7.2249   -1.2862   22.7603 N   0  0  0  0  0  0  0  0  0  0  0  0
    7.4505   -2.5977   23.4522 C   0  0  0  0  0  0  0  0  0  0  0  0
    6.4117   -3.6767   23.3716 O   0  0  0  0  0  0  0  0  0  0  0  0
    8.7151   -2.8303   24.2248 C   0  0  0  0  0  0  0  0  0  0  0  0
    8.9408   -4.1419   24.9167 C   0  0  0  0  0  0  0  0  0  0  0  0
   10.2053   -4.3744   25.6893 C   0  0  0  0  0  0  0  0  0  0  0  0
   11.2441   -3.2954   25.7699 C   0  0  0  0  0  0  0  0  0  0  0  0
   12.5087   -3.5280   26.5425 F   0  0  0  0  0  0  0  0  0  0  0  0
   11.0185   -1.9839   25.0779 C   0  0  0  0  0  0  0  0  0  0  0  0
    9.7540   -1.7513   24.3054 C   0  0  0  0  0  0  0  0  0  0  0  0
   11.0314    3.0635   22.8828 C   0  0  0  0  0  0  0  0  0  0  0  0
   12.3717    3.3609   22.2787 C   0  0  0  0  0  0  0  0  0  0  0  0
   12.7064    4.7579   21.8469 N   0  0  0  0  0  0  0  0  0  0  0  0
   11.7007    5.8574   22.0193 C   0  0  0  0  0  0  0  0  0  0  0  0
   10.3604    5.5599   22.6234 C   0  0  0  0  0  0  0  0  0  0  0  0
    9.3547    6.6595   22.7957 C   0  0  0  0  0  0  0  0  0  0  0  0
    8.0143    6.3619   23.3999 C   0  0  0  0  0  0  0  0  0  0  0  0
    7.6797    4.9650   23.8316 C   0  0  0  0  0  0  0  0  0  0  0  0
    8.6854    3.8655   23.6593 C   0  0  0  0  0  0  0  0  0  0  0  0
   10.0257    4.1629   23.0552 C   0  0  0  0  0  0  0  0  0  0  0  0
    5.9603   -1.0536   21.9877 C   0  0  0  0  0  0  0  0  0  0  0  0
    6.0247   -0.5286   20.5840 C   0  0  0  0  0  0  0  0  0  0  0  0
    7.1998   -0.6314   19.6574 N   0  0  0  0  0  0  0  0  0  0  0  0
    6.8268    0.0249   18.3612 N   0  0  0  0  0  0  0  0  0  0  0  0
    5.4211    0.5334   18.4868 N   0  0  0  0  0  0  0  0  0  0  0  0
    4.6471    1.2568   17.4250 C   0  0  0  0  0  0  0  0  0  0  0  0
    4.9255    0.1912   19.8605 N   0  0  0  0  0  0  0  0  0  0  0  0
  2  1  1  0  0  0
  2  3  1  0  0  0
  3  4  1  0  0  0
  4 19  1  0  0  0
 19 20  2  0  0  0
 20 21  1  0  0  0
 21 22  2  0  0  0
 22 23  1  0  0  0
 23 24  2  0  0  0
 24 25  1  0  0  0
 25 26  2  0  0  0
 26 27  1  0  0  0
 27 28  2  0  0  0
  4  5  1  0  0  0
  5  6  2  0  0  0
  5  7  1  0  0  0
  7  8  1  0  0  0
  8  9  1  0  0  0
  9 29  1  0  0  0
 29 30  1  0  0  0
 30 31  1  0  0  0
 31 32  2  0  0  0
 32 33  1  0  0  0
 33 34  1  0  0  0
 33 35  1  0  0  0
  9 10  1  0  0  0
 10 11  2  0  0  0
 10 12  1  0  0  0
 12 13  2  0  0  0
 13 14  1  0  0  0
 14 15  2  0  0  0
 15 16  1  0  0  0
 15 17  1  0  0  0
 17 18  2  0  0  0
  7  2  1  0  0  0
 35 30  2  0  0  0
 18 12  1  0  0  0
 28 19  1  0  0  0
 18  7  1  0  0  0
 28 23  1  0  0  0
M  END
> <minimizedAffinity>
-9.27423

> <CNNscore>
0.6214027405

> <CNNaffinity>
7.1352739334

> <CNN_VS>
4.4338788986

> <CNNaffinity_variance>
0.0891093910

$$$$



 35 40  0  0  0  0  0  0  0  0999 V2000
    7.5267   -3.3064   23.4840 C   0  0  0  0  0  0  0  0  0  0  0  0
    7.7111   -2.0278   22.7215 C   0  0  0  0  0  0  0  0  0  0  0  0
    6.5920   -1.7850   21.7527 C   0  0  0  0  0  0  0  0  0  0  0  0
    6.8652   -0.4918   21.0435 N   0  0  0  0  0  0  0  0  0  0  0  0
    8.1532    0.0646   21.5741 C   0  0  0  0  0  0  0  0  0  0  0  0
    8.8042    1.3455   21.1432 O   0  0  0  0  0  0  0  0  0  0  0  0
    8.6760   -0.8846   22.6111 C   0  0  0  0  0  0  0  0  0  0  0  0
    9.5454    0.3177   22.3911 C   0  0  0  0  0  0  0  0  0  0  0  0
   10.8109    0.4826   23.1794 N   0  0  0  0  0  0  0  0  0  0  0  0
   11.2069   -0.5549   24.1877 C   0  0  0  0  0  0  0  0  0  0  0  0
   12.4724   -0.3900   24.9760 O   0  0  0  0  0  0  0  0  0  0  0  0
   10.3375   -1.7573   24.4078 C   0  0  0  0  0  0  0  0  0  0  0  0
   10.7336   -2.7948   25.4161 C   0  0  0  0  0  0  0  0  0  0  0  0
    9.8642   -3.9972   25.6361 C   0  0  0  0  0  0  0  0  0  0  0  0
    8.5987   -4.1620   24.8478 C   0  0  0  0  0  0  0  0  0  0  0  0
    7.7293   -5.3645   25.0679 F   0  0  0  0  0  0  0  0  0  0  0  0
    8.2027   -3.1246   23.8395 C   0  0  0  0  0  0  0  0  0  0  0  0
    9.0721   -1.9222   23.6195 C   0  0  0  0  0  0  0  0  0  0  0  0
    6.0021    0.1350   19.9889 C   0  0  0  0  0  0  0  0  0  0  0  0
    6.3920    0.0356   18.5440 C   0  0  0  0  0  0  0  0  0  0  0  0
    5.5289    0.6623   17.4894 N   0  0  0  0  0  0  0  0  0  0  0  0
    4.2758    1.3885   17.8798 C   0  0  0  0  0  0  0  0  0  0  0  0
    3.8859    1.4880   19.3249 C   0  0  0  0  0  0  0  0  0  0  0  0
    2.6328    2.2142   19.7153 C   0  0  0  0  0  0  0  0  0  0  0  0
    2.2429    2.3136   21.1604 C   0  0  0  0  0  0  0  0  0  0  0  0
    3.1061    1.6868   22.2149 C   0  0  0  0  0  0  0  0  0  0  0  0
    4.3591    0.9606   21.8244 C   0  0  0  0  0  0  0  0  0  0  0  0
    4.7490    0.8612   20.3795 C   0  0  0  0  0  0  0  0  0  0  0  0
   11.6803    1.6850   22.9594 C   0  0  0  0  0  0  0  0  0  0  0  0
   11.0746    3.0572   22.9520 C   0  0  0  0  0  0  0  0  0  0  0  0
    9.6551    3.3963   23.2986 N   0  0  0  0  0  0  0  0  0  0  0  0
    9.4852    4.8799   23.1576 N   0  0  0  0  0  0  0  0  0  0  0  0
   10.7998    5.4579   22.7238 N   0  0  0  0  0  0  0  0  0  0  0  0
   11.0824    6.9077   22.4630 C   0  0  0  0  0  0  0  0  0  0  0  0
   11.7820    4.3314   22.5968 N   0  0  0  0  0  0  0  0  0  0  0  0
  2  1  1  0  0  0
  2  3  1  0  0  0
  3  4  1  0  0  0
  4 19  1  0  0  0
 19 20  2  0  0  0
 20 21  1  0  0  0
 21 22  2  0  0  0
 22 23  1  0  0  0
 23 24  2  0  0  0
 24 25  1  0  0  0
 25 26  2  0  0  0
 26 27  1  0  0  0
 27 28  2  0  0  0
  4  5  1  0  0  0
  5  6  2  0  0  0
  5  7  1  0  0  0
  7  8  1  0  0  0
  8  9  1  0  0  0
  9 29  1  0  0  0
 29 30  1  0  0  0
 30 31  1  0  0  0
 31 32  2  0  0  0
 32 33  1  0  0  0
 33 34  1  0  0  0
 33 35  1  0  0  0
  9 10  1  0  0  0
 10 11  2  0  0  0
 10 12  1  0  0  0
 12 13  2  0  0  0
 13 14  1  0  0  0
 14 15  2  0  0  0
 15 16  1  0  0  0
 15 17  1  0  0  0
 17 18  2  0  0  0
  7  2  1  0  0  0
 35 30  2  0  0  0
 18 12  1  0  0  0
 28 19  1  0  0  0
 18  7  1  0  0  0
 28 23  1  0  0  0
M  END
> <minimizedAffinity>
-9.77436

> <CNNscore>
0.6015980840

> <CNNaffinity>
6.8890509605

> <CNN_VS>
4.1444396973

> <CNNaffinity_variance>
0.1550504416

$$$$



 35 40  0  0  0  0  0  0  0  0999 V2000
   10.8166   -3.1189   25.9679 C   0  0  0  0  0  0  0  0  0  0  0  0
    9.4055   -2.8167   25.5584 C   0  0  0  0  0  0  0  0  0  0  0  0
    8.4294   -3.7951   26.1417 C   0  0  0  0  0  0  0  0  0  0  0  0
    7.0555   -3.4116   25.6778 N   0  0  0  0  0  0  0  0  0  0  0  0
    7.1824   -2.1963   24.8078 C   0  0  0  0  0  0  0  0  0  0  0  0
    6.0549   -1.4752   24.1305 O   0  0  0  0  0  0  0  0  0  0  0  0
    8.6348   -1.8286   24.7340 C   0  0  0  0  0  0  0  0  0  0  0  0
    7.7349   -0.9199   23.9503 C   0  0  0  0  0  0  0  0  0  0  0  0
    8.3147    0.2334   23.1863 N   0  0  0  0  0  0  0  0  0  0  0  0
    9.7945    0.4779   23.2060 C   0  0  0  0  0  0  0  0  0  0  0  0
   10.3744    1.6312   22.4420 O   0  0  0  0  0  0  0  0  0  0  0  0
   10.6945   -0.4308   23.9898 C   0  0  0  0  0  0  0  0  0  0  0  0
   12.1743   -0.1863   24.0095 C   0  0  0  0  0  0  0  0  0  0  0  0
   13.0742   -1.0950   24.7933 C   0  0  0  0  0  0  0  0  0  0  0  0
   12.4943   -2.2483   25.5573 C   0  0  0  0  0  0  0  0  0  0  0  0
   13.3943   -3.1571   26.3410 F   0  0  0  0  0  0  0  0  0  0  0  0
   11.0146   -2.4928   25.5375 C   0  0  0  0  0  0  0  0  0  0  0  0
   10.1146   -1.5841   24.7538 C   0  0  0  0  0  0  0  0  0  0  0  0
    5.7788   -4.1192   26.0232 C   0  0  0  0  0  0  0  0  0  0  0  0
    5.0839   -4.9584   24.9924 C   0  0  0  0  0  0  0  0  0  0  0  0
    3.8072   -5.6660   25.3378 N   0  0  0  0  0  0  0  0  0  0  0  0
    3.2254   -5.5343   26.7141 C   0  0  0  0  0  0  0  0  0  0  0  0
    3.9204   -4.6950   27.7449 C   0  0  0  0  0  0  0  0  0  0  0  0
    3.3385   -4.5634   29.1213 C   0  0  0  0  0  0  0  0  0  0  0  0
    4.0336   -3.7241   30.1521 C   0  0  0  0  0  0  0  0  0  0  0  0
    5.3102   -3.0165   29.8066 C   0  0  0  0  0  0  0  0  0  0  0  0
    5.8920   -3.1482   28.4304 C   0  0  0  0  0  0  0  0  0  0  0  0
    5.1971   -3.9874   27.3995 C   0  0  0  0  0  0  0  0  0  0  0  0
    7.4147    1.1422   22.4025 C   0  0  0  0  0  0  0  0  0  0  0  0
    7.0222    0.7821   21.0003 C   0  0  0  0  0  0  0  0  0  0  0  0
    7.7616   -0.1537   20.0905 N   0  0  0  0  0  0  0  0  0  0  0  0
    7.0177   -0.2196   18.7896 N   0  0  0  0  0  0  0  0  0  0  0  0
    5.8186    0.6754   18.8954 N   0  0  0  0  0  0  0  0  0  0  0  0
    4.7963    0.9101   17.8232 C   0  0  0  0  0  0  0  0  0  0  0  0
    5.8214    1.2945   20.2617 N   0  0  0  0  0  0  0  0  0  0  0  0
  2  1  1  0  0  0
  2  3  1  0  0  0
  3  4  1  0  0  0
  4 19  1  0  0  0
 19 20  2  0  0  0
 20 21  1  0  0  0
 21 22  2  0  0  0
 22 23  1  0  0  0
 23 24  2  0  0  0
 24 25  1  0  0  0
 25 26  2  0  0  0
 26 27  1  0  0  0
 27 28  2  0  0  0
  4  5  1  0  0  0
  5  6  2  0  0  0
  5  7  1  0  0  0
  7  8  1  0  0  0
  8  9  1  0  0  0
  9 29  1  0  0  0
 29 30  1  0  0  0
 30 31  1  0  0  0
 31 32  2  0  0  0
 32 33  1  0  0  0
 33 34  1  0  0  0
 33 35  1  0  0  0
  9 10  1  0  0  0
 10 11  2  0  0  0
 10 12  1  0  0  0
 12 13  2  0  0  0
 13 14  1  0  0  0
 14 15  2  0  0  0
 15 16  1  0  0  0
 15 17  1  0  0  0
 17 18  2  0  0  0
  7  2  1  0  0  0
 35 30  2  0  0  0
 18 12  1  0  0  0
 28 19  1  0  0  0
 18  7  1  0  0  0
 28 23  1  0  0  0
M  END
> <minimizedAffinity>
-9.10830

> <CNNscore>
0.5113887191

> <CNNaffinity>
6.8824081421

> <CNN_VS>
3.5195858479

> <CNNaffinity_variance>
0.1739869565

$$$$



 35 40  0  0  0  0  0  0  0  0999 V2000
   10.9892   -3.3175   26.3343 C   0  0  0  0  0  0  0  0  0  0  0  0
    9.6192   -2.9032   25.8855 C   0  0  0  0  0  0  0  0  0  0  0  0
    8.5475   -3.7677   26.4808 C   0  0  0  0  0  0  0  0  0  0  0  0
    7.2229   -3.2777   25.9756 N   0  0  0  0  0  0  0  0  0  0  0  0
    7.4759   -2.1105   25.0680 C   0  0  0  0  0  0  0  0  0  0  0  0
    6.4312   -1.3145   24.3434 O   0  0  0  0  0  0  0  0  0  0  0  0
    8.9568   -1.8790   25.0123 C   0  0  0  0  0  0  0  0  0  0  0  0
    8.1579   -0.9207   24.1798 C   0  0  0  0  0  0  0  0  0  0  0  0
    8.8543    0.1474   23.3897 N   0  0  0  0  0  0  0  0  0  0  0  0
   10.3496    0.2571   23.4321 C   0  0  0  0  0  0  0  0  0  0  0  0
   11.0460    1.3252   22.6421 O   0  0  0  0  0  0  0  0  0  0  0  0
   11.1486   -0.7012   24.2647 C   0  0  0  0  0  0  0  0  0  0  0  0
   12.6440   -0.5915   24.3072 C   0  0  0  0  0  0  0  0  0  0  0  0
   13.4430   -1.5498   25.1397 C   0  0  0  0  0  0  0  0  0  0  0  0
   12.7466   -2.6179   25.9298 C   0  0  0  0  0  0  0  0  0  0  0  0
   13.5456   -3.5763   26.7624 F   0  0  0  0  0  0  0  0  0  0  0  0
   11.2512   -2.7277   25.8874 C   0  0  0  0  0  0  0  0  0  0  0  0
   10.4523   -1.7693   25.0548 C   0  0  0  0  0  0  0  0  0  0  0  0
    5.8809   -3.8538   26.3178 C   0  0  0  0  0  0  0  0  0  0  0  0
    5.1145   -4.6320   25.2898 C   0  0  0  0  0  0  0  0  0  0  0  0
    3.7725   -5.2081   25.6320 N   0  0  0  0  0  0  0  0  0  0  0  0
    3.1969   -5.0059   27.0023 C   0  0  0  0  0  0  0  0  0  0  0  0
    3.9633   -4.2276   28.0304 C   0  0  0  0  0  0  0  0  0  0  0  0
    3.3876   -4.0254   29.4007 C   0  0  0  0  0  0  0  0  0  0  0  0
    4.1541   -3.2471   30.4287 C   0  0  0  0  0  0  0  0  0  0  0  0
    5.4960   -2.6711   30.0865 C   0  0  0  0  0  0  0  0  0  0  0  0
    6.0716   -2.8733   28.7162 C   0  0  0  0  0  0  0  0  0  0  0  0
    5.3053   -3.6515   27.6881 C   0  0  0  0  0  0  0  0  0  0  0  0
    8.0552    1.1058   22.5571 C   0  0  0  0  0  0  0  0  0  0  0  0
    7.7059    2.4598   23.0997 C   0  0  0  0  0  0  0  0  0  0  0  0
    6.4447    2.8194   23.8277 N   0  0  0  0  0  0  0  0  0  0  0  0
    6.5158    4.2739   24.1875 N   0  0  0  0  0  0  0  0  0  0  0  0
    7.8210    4.8132   23.6819 N   0  0  0  0  0  0  0  0  0  0  0  0
    8.3056    6.2257   23.8237 C   0  0  0  0  0  0  0  0  0  0  0  0
    8.5565    3.6921   23.0096 N   0  0  0  0  0  0  0  0  0  0  0  0
  2  1  1  0  0  0
  2  3  1  0  0  0
  3  4  1  0  0  0
  4 19  1  0  0  0
 19 20  2  0  0  0
 20 21  1  0  0  0
 21 22  2  0  0  0
 22 23  1  0  0  0
 23 24  2  0  0  0
 24 25  1  0  0  0
 25 26  2  0  0  0
 26 27  1  0  0  0
 27 28  2  0  0  0
  4  5  1  0  0  0
  5  6  2  0  0  0
  5  7  1  0  0  0
  7  8  1  0  0  0
  8  9  1  0  0  0
  9 29  1  0  0  0
 29 30  1  0  0  0
 30 31  1  0  0  0
 31 32  2  0  0  0
 32 33  1  0  0  0
 33 34  1  0  0  0
 33 35  1  0  0  0
  9 10  1  0  0  0
 10 11  2  0  0  0
 10 12  1  0  0  0
 12 13  2  0  0  0
 13 14  1  0  0  0
 14 15  2  0  0  0
 15 16  1  0  0  0
 15 17  1  0  0  0
 17 18  2  0  0  0
  7  2  1  0  0  0
 35 30  2  0  0  0
 18 12  1  0  0  0
 28 19  1  0  0  0
 18  7  1  0  0  0
 28 23  1  0  0  0
M  END
> <minimizedAffinity>
-7.90909

> <CNNscore>
0.5097895861

> <CNNaffinity>
6.7889657021

> <CNN_VS>
3.4609439373

> <CNNaffinity_variance>
0.1662226021

$$$$



 35 40  0  0  0  0  0  0  0  0999 V2000
   10.6366   -3.7211   25.4615 C   0  0  0  0  0  0  0  0  0  0  0  0
    9.3497   -3.3730   24.7740 C   0  0  0  0  0  0  0  0  0  0  0  0
    8.3303   -4.4659   24.9031 C   0  0  0  0  0  0  0  0  0  0  0  0
    7.0869   -4.0267   24.1882 N   0  0  0  0  0  0  0  0  0  0  0  0
    7.3379   -2.6624   23.6173 C   0  0  0  0  0  0  0  0  0  0  0  0
    6.3617   -1.8456   22.8237 O   0  0  0  0  0  0  0  0  0  0  0  0
    8.7363   -2.2585   23.9794 C   0  0  0  0  0  0  0  0  0  0  0  0
    7.9935   -1.2322   23.1763 C   0  0  0  0  0  0  0  0  0  0  0  0
    8.6613    0.0595   22.8083 N   0  0  0  0  0  0  0  0  0  0  0  0
   10.0720    0.3250   23.2434 C   0  0  0  0  0  0  0  0  0  0  0  0
   10.7399    1.6168   22.8755 O   0  0  0  0  0  0  0  0  0  0  0  0
   10.8149   -0.7012   24.0466 C   0  0  0  0  0  0  0  0  0  0  0  0
   12.2256   -0.4357   24.4817 C   0  0  0  0  0  0  0  0  0  0  0  0
   12.9685   -1.4619   25.2848 C   0  0  0  0  0  0  0  0  0  0  0  0
   12.3006   -2.7537   25.6528 C   0  0  0  0  0  0  0  0  0  0  0  0
   13.0436   -3.7799   26.4559 F   0  0  0  0  0  0  0  0  0  0  0  0
   10.8900   -3.0192   25.2176 C   0  0  0  0  0  0  0  0  0  0  0  0
   10.1471   -1.9930   24.4145 C   0  0  0  0  0  0  0  0  0  0  0  0
    5.8157   -4.8135   24.0656 C   0  0  0  0  0  0  0  0  0  0  0  0
    5.4632   -5.4710   22.7644 C   0  0  0  0  0  0  0  0  0  0  0  0
    4.1920   -6.2578   22.6419 N   0  0  0  0  0  0  0  0  0  0  0  0
    3.2735   -6.3872   23.8207 C   0  0  0  0  0  0  0  0  0  0  0  0
    3.6261   -5.7297   25.1220 C   0  0  0  0  0  0  0  0  0  0  0  0
    2.7075   -5.8590   26.3008 C   0  0  0  0  0  0  0  0  0  0  0  0
    3.0602   -5.2015   27.6020 C   0  0  0  0  0  0  0  0  0  0  0  0
    4.3313   -4.4147   27.7245 C   0  0  0  0  0  0  0  0  0  0  0  0
    5.2498   -4.2853   26.5457 C   0  0  0  0  0  0  0  0  0  0  0  0
    4.8972   -4.9428   25.2445 C   0  0  0  0  0  0  0  0  0  0  0  0
    7.9184    1.0857   22.0052 C   0  0  0  0  0  0  0  0  0  0  0  0
    7.3062    0.7086   20.6888 C   0  0  0  0  0  0  0  0  0  0  0  0
    7.7758   -0.3885   19.7801 N   0  0  0  0  0  0  0  0  0  0  0  0
    6.8768   -0.4128   18.5796 N   0  0  0  0  0  0  0  0  0  0  0  0
    5.8515    0.6694   18.7463 N   0  0  0  0  0  0  0  0  0  0  0  0
    4.7537    1.0003   17.7793 C   0  0  0  0  0  0  0  0  0  0  0  0
    6.1169    1.3624   20.0499 N   0  0  0  0  0  0  0  0  0  0  0  0
  2  1  1  0  0  0
  2  3  1  0  0  0
  3  4  1  0  0  0
  4 19  1  0  0  0
 19 20  2  0  0  0
 20 21  1  0  0  0
 21 22  2  0  0  0
 22 23  1  0  0  0
 23 24  2  0  0  0
 24 25  1  0  0  0
 25 26  2  0  0  0
 26 27  1  0  0  0
 27 28  2  0  0  0
  4  5  1  0  0  0
  5  6  2  0  0  0
  5  7  1  0  0  0
  7  8  1  0  0  0
  8  9  1  0  0  0
  9 29  1  0  0  0
 29 30  1  0  0  0
 30 31  1  0  0  0
 31 32  2  0  0  0
 32 33  1  0  0  0
 33 34  1  0  0  0
 33 35  1  0  0  0
  9 10  1  0  0  0
 10 11  2  0  0  0
 10 12  1  0  0  0
 12 13  2  0  0  0
 13 14  1  0  0  0
 14 15  2  0  0  0
 15 16  1  0  0  0
 15 17  1  0  0  0
 17 18  2  0  0  0
  7  2  1  0  0  0
 35 30  2  0  0  0
 18 12  1  0  0  0
 28 19  1  0  0  0
 18  7  1  0  0  0
 28 23  1  0  0  0
M  END
> <minimizedAffinity>
-9.51867

> <CNNscore>
0.4697034359

> <CNNaffinity>
6.7885103226

> <CNN_VS>
3.1885867119

> <CNNaffinity_variance>
0.0724917054

$$$$



 35 40  0  0  0  0  0  0  0  0999 V2000
    9.1128   -0.9413   23.6852 C   0  0  0  0  0  0  0  0  0  0  0  0
    7.9546   -1.3385   22.8186 C   0  0  0  0  0  0  0  0  0  0  0  0
    7.5597   -0.2440   21.8720 C   0  0  0  0  0  0  0  0  0  0  0  0
    6.4015   -0.7337   21.0544 N   0  0  0  0  0  0  0  0  0  0  0  0
    6.0805   -2.1310   21.4957 C   0  0  0  0  0  0  0  0  0  0  0  0
    4.9909   -3.0016   20.9435 O   0  0  0  0  0  0  0  0  0  0  0  0
    7.0404   -2.5048   22.5861 C   0  0  0  0  0  0  0  0  0  0  0  0
    6.0567   -3.5839   22.2428 C   0  0  0  0  0  0  0  0  0  0  0  0
    6.0956   -4.8939   22.9725 N   0  0  0  0  0  0  0  0  0  0  0  0
    7.1180   -5.1248   24.0454 C   0  0  0  0  0  0  0  0  0  0  0  0
    7.1569   -6.4348   24.7750 O   0  0  0  0  0  0  0  0  0  0  0  0
    8.1018   -4.0456   24.3887 C   0  0  0  0  0  0  0  0  0  0  0  0
    9.1242   -4.2764   25.4616 C   0  0  0  0  0  0  0  0  0  0  0  0
   10.1079   -3.1973   25.8048 C   0  0  0  0  0  0  0  0  0  0  0  0
   10.0690   -1.8873   25.0752 C   0  0  0  0  0  0  0  0  0  0  0  0
   11.0528   -0.8081   25.4185 F   0  0  0  0  0  0  0  0  0  0  0  0
    9.0466   -1.6565   24.0023 C   0  0  0  0  0  0  0  0  0  0  0  0
    8.0629   -2.7356   23.6590 C   0  0  0  0  0  0  0  0  0  0  0  0
    5.6892    0.0382   19.9835 C   0  0  0  0  0  0  0  0  0  0  0  0
    6.1570   -0.0465   18.5609 C   0  0  0  0  0  0  0  0  0  0  0  0
    5.4448    0.7254   17.4900 N   0  0  0  0  0  0  0  0  0  0  0  0
    4.2647    1.5820   17.8418 C   0  0  0  0  0  0  0  0  0  0  0  0
    3.7969    1.6666   19.2644 C   0  0  0  0  0  0  0  0  0  0  0  0
    2.6167    2.5232   19.6162 C   0  0  0  0  0  0  0  0  0  0  0  0
    2.1490    2.6077   21.0389 C   0  0  0  0  0  0  0  0  0  0  0  0
    2.8612    1.8358   22.1097 C   0  0  0  0  0  0  0  0  0  0  0  0
    4.0413    0.9793   21.7579 C   0  0  0  0  0  0  0  0  0  0  0  0
    4.5091    0.8947   20.3353 C   0  0  0  0  0  0  0  0  0  0  0  0
    5.1118   -5.9731   22.6292 C   0  0  0  0  0  0  0  0  0  0  0  0
    3.8450   -6.1123   23.4200 C   0  0  0  0  0  0  0  0  0  0  0  0
    2.5403   -6.6470   22.9082 N   0  0  0  0  0  0  0  0  0  0  0  0
    1.5493   -6.6065   24.0334 N   0  0  0  0  0  0  0  0  0  0  0  0
    2.2415   -6.0468   25.2408 N   0  0  0  0  0  0  0  0  0  0  0  0
    1.6234   -5.8305   26.5903 C   0  0  0  0  0  0  0  0  0  0  0  0
    3.6603   -5.7414   24.8617 N   0  0  0  0  0  0  0  0  0  0  0  0
  2  1  1  0  0  0
  2  3  1  0  0  0
  3  4  1  0  0  0
  4 19  1  0  0  0
 19 20  2  0  0  0
 20 21  1  0  0  0
 21 22  2  0  0  0
 22 23  1  0  0  0
 23 24  2  0  0  0
 24 25  1  0  0  0
 25 26  2  0  0  0
 26 27  1  0  0  0
 27 28  2  0  0  0
  4  5  1  0  0  0
  5  6  2  0  0  0
  5  7  1  0  0  0
  7  8  1  0  0  0
  8  9  1  0  0  0
  9 29  1  0  0  0
 29 30  1  0  0  0
 30 31  1  0  0  0
 31 32  2  0  0  0
 32 33  1  0  0  0
 33 34  1  0  0  0
 33 35  1  0  0  0
  9 10  1  0  0  0
 10 11  2  0  0  0
 10 12  1  0  0  0
 12 13  2  0  0  0
 13 14  1  0  0  0
 14 15  2  0  0  0
 15 16  1  0  0  0
 15 17  1  0  0  0
 17 18  2  0  0  0
  7  2  1  0  0  0
 35 30  2  0  0  0
 18 12  1  0  0  0
 28 19  1  0  0  0
 18  7  1  0  0  0
 28 23  1  0  0  0
M  END
> <minimizedAffinity>
-8.36371

> <CNNscore>
0.4441134930

> <CNNaffinity>
6.5876135826

> <CNN_VS>
2.9256479740

> <CNNaffinity_variance>
0.0184552204

$$$$



 35 40  0  0  0  0  0  0  0  0999 V2000
    7.2704    0.2038   20.1180 C   0  0  0  0  0  0  0  0  0  0  0  0
    7.5922    0.0629   21.5764 C   0  0  0  0  0  0  0  0  0  0  0  0
    9.0190   -0.3424   21.8003 C   0  0  0  0  0  0  0  0  0  0  0  0
    9.2418   -0.4564   23.2792 N   0  0  0  0  0  0  0  0  0  0  0  0
    7.9527   -0.1215   23.9693 C   0  0  0  0  0  0  0  0  0  0  0  0
    7.7235   -0.1096   25.4517 O   0  0  0  0  0  0  0  0  0  0  0  0
    6.9333    0.1995   22.9169 C   0  0  0  0  0  0  0  0  0  0  0  0
    6.4124    0.2954   24.3202 C   0  0  0  0  0  0  0  0  0  0  0  0
    4.9846    0.6846   24.5653 N   0  0  0  0  0  0  0  0  0  0  0  0
    4.0778    0.9779   23.4071 C   0  0  0  0  0  0  0  0  0  0  0  0
    2.6500    1.3671   23.6522 O   0  0  0  0  0  0  0  0  0  0  0  0
    4.5987    0.8820   22.0037 C   0  0  0  0  0  0  0  0  0  0  0  0
    3.6918    1.1753   20.8454 C   0  0  0  0  0  0  0  0  0  0  0  0
    4.2127    1.0794   19.4421 C   0  0  0  0  0  0  0  0  0  0  0  0
    5.6405    0.6902   19.1970 C   0  0  0  0  0  0  0  0  0  0  0  0
    6.1614    0.5943   17.7936 F   0  0  0  0  0  0  0  0  0  0  0  0
    6.5473    0.3969   20.3552 C   0  0  0  0  0  0  0  0  0  0  0  0
    6.0264    0.4928   21.7586 C   0  0  0  0  0  0  0  0  0  0  0  0
   10.5278   -0.8383   23.9503 C   0  0  0  0  0  0  0  0  0  0  0  0
   11.7348    0.0417   23.8142 C   0  0  0  0  0  0  0  0  0  0  0  0
   13.0209   -0.3402   24.4853 N   0  0  0  0  0  0  0  0  0  0  0  0
   13.0997   -1.6020   25.2924 C   0  0  0  0  0  0  0  0  0  0  0  0
   11.8926   -2.4820   25.4285 C   0  0  0  0  0  0  0  0  0  0  0  0
   11.9716   -3.7440   26.2357 C   0  0  0  0  0  0  0  0  0  0  0  0
   10.7644   -4.6239   26.3717 C   0  0  0  0  0  0  0  0  0  0  0  0
    9.4785   -4.2420   25.7006 C   0  0  0  0  0  0  0  0  0  0  0  0
    9.3996   -2.9801   24.8935 C   0  0  0  0  0  0  0  0  0  0  0  0
   10.6066   -2.1002   24.7574 C   0  0  0  0  0  0  0  0  0  0  0  0
    4.4637    0.7805   25.9688 C   0  0  0  0  0  0  0  0  0  0  0  0
    5.2077    1.5871   26.9914 C   0  0  0  0  0  0  0  0  0  0  0  0
    5.6228    3.0216   26.8511 N   0  0  0  0  0  0  0  0  0  0  0  0
    6.3388    3.4219   28.1069 N   0  0  0  0  0  0  0  0  0  0  0  0
    6.3663    2.2347   29.0234 N   0  0  0  0  0  0  0  0  0  0  0  0
    6.9843    2.1895   30.3894 C   0  0  0  0  0  0  0  0  0  0  0  0
    5.6672    1.1007   28.3340 N   0  0  0  0  0  0  0  0  0  0  0  0
  2  1  1  0  0  0
  2  3  1  0  0  0
  3  4  1  0  0  0
  4 19  1  0  0  0
 19 20  2  0  0  0
 20 21  1  0  0  0
 21 22  2  0  0  0
 22 23  1  0  0  0
 23 24  2  0  0  0
 24 25  1  0  0  0
 25 26  2  0  0  0
 26 27  1  0  0  0
 27 28  2  0  0  0
  4  5  1  0  0  0
  5  6  2  0  0  0
  5  7  1  0  0  0
  7  8  1  0  0  0
  8  9  1  0  0  0
  9 29  1  0  0  0
 29 30  1  0  0  0
 30 31  1  0  0  0
 31 32  2  0  0  0
 32 33  1  0  0  0
 33 34  1  0  0  0
 33 35  1  0  0  0
  9 10  1  0  0  0
 10 11  2  0  0  0
 10 12  1  0  0  0
 12 13  2  0  0  0
 13 14  1  0  0  0
 14 15  2  0  0  0
 15 16  1  0  0  0
 15 17  1  0  0  0
 17 18  2  0  0  0
  7  2  1  0  0  0
 35 30  2  0  0  0
 18 12  1  0  0  0
 28 19  1  0  0  0
 18  7  1  0  0  0
 28 23  1  0  0  0
M  END
> <minimizedAffinity>
-8.62851

> <CNNscore>
0.3111252487

> <CNNaffinity>
6.5189461708

> <CNN_VS>
2.0282087326

> <CNNaffinity_variance>
0.0429853126

$$$$



 35 40  0  0  0  0  0  0  0  0999 V2000
   10.6656   -3.6542   25.4538 C   0  0  0  0  0  0  0  0  0  0  0  0
    9.4544   -3.3358   24.6281 C   0  0  0  0  0  0  0  0  0  0  0  0
    8.4080   -4.4057   24.7299 C   0  0  0  0  0  0  0  0  0  0  0  0
    7.2443   -3.9986   23.8754 N   0  0  0  0  0  0  0  0  0  0  0  0
    7.5717   -2.6772   23.2455 C   0  0  0  0  0  0  0  0  0  0  0  0
    6.6881   -1.9017   22.3139 O   0  0  0  0  0  0  0  0  0  0  0  0
    8.9376   -2.2675   23.7107 C   0  0  0  0  0  0  0  0  0  0  0  0
    8.2910   -1.2865   22.7783 C   0  0  0  0  0  0  0  0  0  0  0  0
    9.0132   -0.0293   22.3937 N   0  0  0  0  0  0  0  0  0  0  0  0
   10.3820    0.2468   22.9414 C   0  0  0  0  0  0  0  0  0  0  0  0
   11.1042    1.5039   22.5567 O   0  0  0  0  0  0  0  0  0  0  0  0
   11.0287   -0.7343   23.8738 C   0  0  0  0  0  0  0  0  0  0  0  0
   12.3975   -0.4582   24.4215 C   0  0  0  0  0  0  0  0  0  0  0  0
   13.0441   -1.4393   25.3539 C   0  0  0  0  0  0  0  0  0  0  0  0
   12.3219   -2.6964   25.7386 C   0  0  0  0  0  0  0  0  0  0  0  0
   12.9686   -3.6775   26.6710 F   0  0  0  0  0  0  0  0  0  0  0  0
   10.9531   -2.9725   25.1909 C   0  0  0  0  0  0  0  0  0  0  0  0
   10.3065   -1.9915   24.2585 C   0  0  0  0  0  0  0  0  0  0  0  0
    5.9761   -4.7764   23.6842 C   0  0  0  0  0  0  0  0  0  0  0  0
    5.6649   -5.3875   22.3503 C   0  0  0  0  0  0  0  0  0  0  0  0
    4.3966   -6.1653   22.1591 N   0  0  0  0  0  0  0  0  0  0  0  0
    3.4396   -6.3320   23.3021 C   0  0  0  0  0  0  0  0  0  0  0  0
    3.7508   -5.7208   24.6361 C   0  0  0  0  0  0  0  0  0  0  0  0
    2.7937   -5.8875   25.7791 C   0  0  0  0  0  0  0  0  0  0  0  0
    3.1050   -5.2763   27.1131 C   0  0  0  0  0  0  0  0  0  0  0  0
    4.3733   -4.4986   27.3041 C   0  0  0  0  0  0  0  0  0  0  0  0
    5.3303   -4.3319   26.1612 C   0  0  0  0  0  0  0  0  0  0  0  0
    5.0191   -4.9430   24.8272 C   0  0  0  0  0  0  0  0  0  0  0  0
    8.3665    0.9518   21.4612 C   0  0  0  0  0  0  0  0  0  0  0  0
    6.8995    0.8503   21.1653 C   0  0  0  0  0  0  0  0  0  0  0  0
    6.2829    0.1420   19.9957 N   0  0  0  0  0  0  0  0  0  0  0  0
    4.7939    0.2932   20.0946 N   0  0  0  0  0  0  0  0  0  0  0  0
    4.4901    1.0951   21.3254 N   0  0  0  0  0  0  0  0  0  0  0  0
    3.1248    1.4843   21.8094 C   0  0  0  0  0  0  0  0  0  0  0  0
    5.7915    1.4394   21.9871 N   0  0  0  0  0  0  0  0  0  0  0  0
  2  1  1  0  0  0
  2  3  1  0  0  0
  3  4  1  0  0  0
  4 19  1  0  0  0
 19 20  2  0  0  0
 20 21  1  0  0  0
 21 22  2  0  0  0
 22 23  1  0  0  0
 23 24  2  0  0  0
 24 25  1  0  0  0
 25 26  2  0  0  0
 26 27  1  0  0  0
 27 28  2  0  0  0
  4  5  1  0  0  0
  5  6  2  0  0  0
  5  7  1  0  0  0
  7  8  1  0  0  0
  8  9  1  0  0  0
  9 29  1  0  0  0
 29 30  1  0  0  0
 30 31  1  0  0  0
 31 32  2  0  0  0
 32 33  1  0  0  0
 33 34  1  0  0  0
 33 35  1  0  0  0
  9 10  1  0  0  0
 10 11  2  0  0  0
 10 12  1  0  0  0
 12 13  2  0  0  0
 13 14  1  0  0  0
 14 15  2  0  0  0
 15 16  1  0  0  0
 15 17  1  0  0  0
 17 18  2  0  0  0
  7  2  1  0  0  0
 35 30  2  0  0  0
 18 12  1  0  0  0
 28 19  1  0  0  0
 18  7  1  0  0  0
 28 23  1  0  0  0
M  END
> <minimizedAffinity>
-8.99769

> <CNNscore>
0.2925455272

> <CNNaffinity>
6.5920133591

> <CNN_VS>
1.9284640551

> <CNNaffinity_variance>
0.0754185766

$$$$



 35 40  0  0  0  0  0  0  0  0999 V2000
   10.7661   -3.7160   25.6123 C   0  0  0  0  0  0  0  0  0  0  0  0
    9.5474   -3.3936   24.7992 C   0  0  0  0  0  0  0  0  0  0  0  0
    8.4771   -4.4329   24.9548 C   0  0  0  0  0  0  0  0  0  0  0  0
    7.3075   -4.0241   24.1092 N   0  0  0  0  0  0  0  0  0  0  0  0
    7.6551   -2.7321   23.4311 C   0  0  0  0  0  0  0  0  0  0  0  0
    6.7732   -1.9645   22.4914 O   0  0  0  0  0  0  0  0  0  0  0  0
    9.0394   -2.3424   23.8575 C   0  0  0  0  0  0  0  0  0  0  0  0
    8.3993   -1.3755   22.9060 C   0  0  0  0  0  0  0  0  0  0  0  0
    9.1448   -0.1499   22.4677 N   0  0  0  0  0  0  0  0  0  0  0  0
   10.5303    0.1089   22.9808 C   0  0  0  0  0  0  0  0  0  0  0  0
   11.2757    1.3345   22.5425 O   0  0  0  0  0  0  0  0  0  0  0  0
   11.1704   -0.8581   23.9324 C   0  0  0  0  0  0  0  0  0  0  0  0
   12.5559   -0.5993   24.4455 C   0  0  0  0  0  0  0  0  0  0  0  0
   13.1960   -1.5662   25.3970 C   0  0  0  0  0  0  0  0  0  0  0  0
   12.4506   -2.7919   25.8353 C   0  0  0  0  0  0  0  0  0  0  0  0
   13.0908   -3.7588   26.7868 F   0  0  0  0  0  0  0  0  0  0  0  0
   11.0651   -3.0506   25.3222 C   0  0  0  0  0  0  0  0  0  0  0  0
   10.4250   -2.0837   24.3707 C   0  0  0  0  0  0  0  0  0  0  0  0
    6.0170   -4.7753   23.9668 C   0  0  0  0  0  0  0  0  0  0  0  0
    5.6924   -5.4707   22.6781 C   0  0  0  0  0  0  0  0  0  0  0  0
    4.4019   -6.2219   22.5356 N   0  0  0  0  0  0  0  0  0  0  0  0
    3.4361   -6.2777   23.6820 C   0  0  0  0  0  0  0  0  0  0  0  0
    3.7608   -5.5822   24.9708 C   0  0  0  0  0  0  0  0  0  0  0  0
    2.7949   -5.6380   26.1171 C   0  0  0  0  0  0  0  0  0  0  0  0
    3.1197   -4.9425   27.4059 C   0  0  0  0  0  0  0  0  0  0  0  0
    4.4102   -4.1913   27.5482 C   0  0  0  0  0  0  0  0  0  0  0  0
    5.3760   -4.1356   26.4019 C   0  0  0  0  0  0  0  0  0  0  0  0
    5.0513   -4.8310   25.1132 C   0  0  0  0  0  0  0  0  0  0  0  0
    8.5046    0.8171   21.5162 C   0  0  0  0  0  0  0  0  0  0  0  0
    7.8547    2.0641   22.0383 C   0  0  0  0  0  0  0  0  0  0  0  0
    8.2790    2.8379   23.2512 N   0  0  0  0  0  0  0  0  0  0  0  0
    7.3530    4.0083   23.4016 N   0  0  0  0  0  0  0  0  0  0  0  0
    6.3564    3.9578   22.2817 N   0  0  0  0  0  0  0  0  0  0  0  0
    5.2448    4.9370   22.0458 C   0  0  0  0  0  0  0  0  0  0  0  0
    6.6665    2.7562   21.4391 N   0  0  0  0  0  0  0  0  0  0  0  0
  2  1  1  0  0  0
  2  3  1  0  0  0
  3  4  1  0  0  0
  4 19  1  0  0  0
 19 20  2  0  0  0
 20 21  1  0  0  0
 21 22  2  0  0  0
 22 23  1  0  0  0
 23 24  2  0  0  0
 24 25  1  0  0  0
 25 26  2  0  0  0
 26 27  1  0  0  0
 27 28  2  0  0  0
  4  5  1  0  0  0
  5  6  2  0  0  0
  5  7  1  0  0  0
  7  8  1  0  0  0
  8  9  1  0  0  0
  9 29  1  0  0  0
 29 30  1  0  0  0
 30 31  1  0  0  0
 31 32  2  0  0  0
 32 33  1  0  0  0
 33 34  1  0  0  0
 33 35  1  0  0  0
  9 10  1  0  0  0
 10 11  2  0  0  0
 10 12  1  0  0  0
 12 13  2  0  0  0
 13 14  1  0  0  0
 14 15  2  0  0  0
 15 16  1  0  0  0
 15 17  1  0  0  0
 17 18  2  0  0  0
  7  2  1  0  0  0
 35 30  2  0  0  0
 18 12  1  0  0  0
 28 19  1  0  0  0
 18  7  1  0  0  0
 28 23  1  0  0  0
M  END
> <minimizedAffinity>
-8.70705

> <CNNscore>
0.2903651893

> <CNNaffinity>
6.5538711548

> <CNN_VS>
1.9030160904

> <CNNaffinity_variance>
0.1225646287

$$$$
