


 40 44  0  0  0  0  0  0  0  0999 V2000
   -5.4115   -6.0616  -23.5196 N   0  0  0  0  0  0  0  0  0  0  0  0
   -5.9914   -4.7852  -22.9862 C   0  0  0  0  0  0  0  0  0  0  0  0
   -7.0574   -4.0656  -23.7580 C   0  0  0  0  0  0  0  0  0  0  0  0
   -8.1232   -3.2393  -24.4146 C   0  0  0  0  0  0  0  0  0  0  0  0
   -8.8147   -3.2354  -25.4137 O   0  0  0  0  0  0  0  0  0  0  0  0
   -8.3978   -2.0544  -23.5367 N   0  0  0  0  0  0  0  0  0  0  0  0
   -7.5016   -2.1484  -22.3375 C   0  0  0  0  0  0  0  0  0  0  0  0
   -6.6732   -3.3914  -22.4743 C   0  0  0  0  0  0  0  0  0  0  0  0
   -7.5436   -4.6224  -25.0633 C   0  0  0  0  0  0  0  0  0  0  0  0
   -8.6096   -3.9028  -25.8351 C   0  0  0  0  0  0  0  0  0  0  0  0
   -9.0958   -4.4596  -27.1403 C   0  0  0  0  0  0  0  0  0  0  0  0
  -10.1618   -3.7399  -27.9121 Cl  0  0  0  0  0  0  0  0  0  0  0  0
   -8.5159   -5.7360  -27.6737 C   0  0  0  0  0  0  0  0  0  0  0  0
   -7.4499   -6.4556  -26.9019 C   0  0  0  0  0  0  0  0  0  0  0  0
   -6.9637   -5.8988  -25.5967 C   0  0  0  0  0  0  0  0  0  0  0  0
   -5.8976   -6.6184  -24.8248 C   0  0  0  0  0  0  0  0  0  0  0  0
   -5.3178   -7.8948  -25.3583 O   0  0  0  0  0  0  0  0  0  0  0  0
   -9.3937   -0.9665  -23.8101 C   0  0  0  0  0  0  0  0  0  0  0  0
   -8.9488    0.3132  -24.4539 C   0  0  0  0  0  0  0  0  0  0  0  0
   -9.9447    1.4010  -24.7273 N   0  0  0  0  0  0  0  0  0  0  0  0
  -11.3855    1.2092  -24.3567 C   0  0  0  0  0  0  0  0  0  0  0  0
  -11.8304   -0.0704  -23.7129 C   0  0  0  0  0  0  0  0  0  0  0  0
  -13.2713   -0.2622  -23.3424 C   0  0  0  0  0  0  0  0  0  0  0  0
  -13.7161   -1.5419  -22.6985 C   0  0  0  0  0  0  0  0  0  0  0  0
  -12.7202   -2.6298  -22.4252 C   0  0  0  0  0  0  0  0  0  0  0  0
  -11.2794   -2.4380  -22.7957 C   0  0  0  0  0  0  0  0  0  0  0  0
  -10.8345   -1.1583  -23.4395 C   0  0  0  0  0  0  0  0  0  0  0  0
   -4.3454   -6.7813  -22.7478 C   0  0  0  0  0  0  0  0  0  0  0  0
   -0.8719   -8.5278  -23.5444 C   0  0  0  0  0  0  0  0  0  0  0  0
   -2.1917   -8.2265  -22.8982 N   0  0  0  0  0  0  0  0  0  0  0  0
   -3.0257   -7.0826  -23.3939 C   0  0  0  0  0  0  0  0  0  0  0  0
   -2.5400   -6.2398  -24.5359 O   0  0  0  0  0  0  0  0  0  0  0  0
   -2.5105   -8.7796  -22.1487 H   0  0  0  0  0  0  0  0  0  0  0  0
   -5.6417   -3.8752  -21.4986 C   0  0  0  0  0  0  0  0  0  0  0  0
   -5.3995   -3.1186  -20.2264 S   0  0  0  0  0  0  0  0  0  0  0  0
   -5.4120   -1.8283  -20.9913 O   0  0  0  0  0  0  0  0  0  0  0  0
   -5.3870   -4.4088  -19.4614 O   0  0  0  0  0  0  0  0  0  0  0  0
   -5.1572   -2.3619  -18.9541 N   0  0  0  0  0  0  0  0  0  0  0  0
   -5.3521   -0.8750  -18.9169 C   0  0  0  0  0  0  0  0  0  0  0  0
   -4.8600   -2.8585  -18.1142 H   0  0  0  0  0  0  0  0  0  0  0  0
 29 30  1  0  0  0
 30 31  1  0  0  0
 31 32  2  0  0  0
 31 28  1  0  0  0
 28  1  1  0  0  0
  1  2  1  0  0  0
  3  2  1  0  0  0
  3  4  1  0  0  0
  4  5  2  0  0  0
  4  6  1  0  0  0
  6 18  1  0  0  0
 18 19  2  0  0  0
 19 20  1  0  0  0
 20 21  2  0  0  0
 21 22  1  0  0  0
 22 23  2  0  0  0
 23 24  1  0  0  0
 24 25  2  0  0  0
 25 26  1  0  0  0
 26 27  2  0  0  0
  6  7  1  0  0  0
  7  8  1  0  0  0
  8 34  1  0  0  0
 34 35  1  0  0  0
 35 36  2  0  0  0
 35 37  2  0  0  0
 35 38  1  0  0  0
 38 39  1  0  0  0
  3  9  1  0  0  0
  9 10  2  0  0  0
 10 11  1  0  0  0
 11 12  1  0  0  0
 11 13  2  0  0  0
 13 14  1  0  0  0
 14 15  2  0  0  0
 15 16  1  0  0  0
 16 17  2  0  0  0
 16  1  1  0  0  0
  8  3  1  0  0  0
 15  9  1  0  0  0
 27 18  1  0  0  0
 27 22  1  0  0  0
 30 33  1  0  0  0
 38 40  1  0  0  0
M  END
> <minimizedAffinity>
-8.06540

> <CNNscore>
0.7943294644

> <CNNaffinity>
7.3745660782

> <CNN_VS>
5.8578352928

> <CNNaffinity_variance>
0.1605345309

$$$$



 40 44  0  0  0  0  0  0  0  0999 V2000
   -5.3503   -6.1227  -23.5693 N   0  0  0  0  0  0  0  0  0  0  0  0
   -6.0430   -4.9334  -22.9729 C   0  0  0  0  0  0  0  0  0  0  0  0
   -7.1685   -4.2725  -23.7119 C   0  0  0  0  0  0  0  0  0  0  0  0
   -8.3037   -3.5115  -24.3303 C   0  0  0  0  0  0  0  0  0  0  0  0
   -8.9917   -3.5168  -25.3318 O   0  0  0  0  0  0  0  0  0  0  0  0
   -8.6844   -2.4040  -23.3930 N   0  0  0  0  0  0  0  0  0  0  0  0
   -7.7846   -2.4805  -22.1953 C   0  0  0  0  0  0  0  0  0  0  0  0
   -6.8478   -3.6353  -22.3924 C   0  0  0  0  0  0  0  0  0  0  0  0
   -7.6015   -4.8009  -25.0474 C   0  0  0  0  0  0  0  0  0  0  0  0
   -8.7271   -4.1399  -25.7864 C   0  0  0  0  0  0  0  0  0  0  0  0
   -9.1600   -4.6683  -27.1218 C   0  0  0  0  0  0  0  0  0  0  0  0
  -10.2856   -4.0074  -27.8609 Cl  0  0  0  0  0  0  0  0  0  0  0  0
   -8.4673   -5.8577  -27.7182 C   0  0  0  0  0  0  0  0  0  0  0  0
   -7.3417   -6.5186  -26.9791 C   0  0  0  0  0  0  0  0  0  0  0  0
   -6.9088   -5.9902  -25.6437 C   0  0  0  0  0  0  0  0  0  0  0  0
   -5.7831   -6.6511  -24.9047 C   0  0  0  0  0  0  0  0  0  0  0  0
   -5.0904   -7.8404  -25.5010 O   0  0  0  0  0  0  0  0  0  0  0  0
   -9.7737   -1.3969  -23.6145 C   0  0  0  0  0  0  0  0  0  0  0  0
  -11.2115   -1.8165  -23.5314 C   0  0  0  0  0  0  0  0  0  0  0  0
  -12.3008   -0.8094  -23.7529 N   0  0  0  0  0  0  0  0  0  0  0  0
  -11.9524    0.6174  -24.0576 C   0  0  0  0  0  0  0  0  0  0  0  0
  -10.5147    1.0371  -24.1407 C   0  0  0  0  0  0  0  0  0  0  0  0
  -10.1663    2.4639  -24.4454 C   0  0  0  0  0  0  0  0  0  0  0  0
   -8.7285    2.8835  -24.5285 C   0  0  0  0  0  0  0  0  0  0  0  0
   -7.6392    1.8764  -24.3070 C   0  0  0  0  0  0  0  0  0  0  0  0
   -7.9876    0.4496  -24.0023 C   0  0  0  0  0  0  0  0  0  0  0  0
   -9.4253    0.0299  -23.9192 C   0  0  0  0  0  0  0  0  0  0  0  0
   -4.2246   -6.7836  -22.8302 C   0  0  0  0  0  0  0  0  0  0  0  0
   -0.8463   -8.6024  -23.8446 C   0  0  0  0  0  0  0  0  0  0  0  0
   -2.1291   -8.2893  -23.1330 N   0  0  0  0  0  0  0  0  0  0  0  0
   -2.9418   -7.0967  -23.5417 C   0  0  0  0  0  0  0  0  0  0  0  0
   -2.4716   -6.2170  -24.6621 O   0  0  0  0  0  0  0  0  0  0  0  0
   -2.4377   -8.8667  -22.3977 H   0  0  0  0  0  0  0  0  0  0  0  0
   -5.7779   -4.0755  -21.4376 C   0  0  0  0  0  0  0  0  0  0  0  0
   -5.3967   -3.1985  -20.2821 S   0  0  0  0  0  0  0  0  0  0  0  0
   -5.4051   -4.3919  -19.3734 O   0  0  0  0  0  0  0  0  0  0  0  0
   -5.3882   -2.0050  -21.1908 O   0  0  0  0  0  0  0  0  0  0  0  0
   -5.0154   -2.3213  -19.1266 N   0  0  0  0  0  0  0  0  0  0  0  0
   -5.7908   -1.0677  -18.8486 C   0  0  0  0  0  0  0  0  0  0  0  0
   -4.2288   -2.5773  -18.5298 H   0  0  0  0  0  0  0  0  0  0  0  0
 29 30  1  0  0  0
 30 31  1  0  0  0
 31 32  2  0  0  0
 31 28  1  0  0  0
 28  1  1  0  0  0
  1  2  1  0  0  0
  3  2  1  0  0  0
  3  4  1  0  0  0
  4  5  2  0  0  0
  4  6  1  0  0  0
  6 18  1  0  0  0
 18 19  2  0  0  0
 19 20  1  0  0  0
 20 21  2  0  0  0
 21 22  1  0  0  0
 22 23  2  0  0  0
 23 24  1  0  0  0
 24 25  2  0  0  0
 25 26  1  0  0  0
 26 27  2  0  0  0
  6  7  1  0  0  0
  7  8  1  0  0  0
  8 34  1  0  0  0
 34 35  1  0  0  0
 35 36  2  0  0  0
 35 37  2  0  0  0
 35 38  1  0  0  0
 38 39  1  0  0  0
  3  9  1  0  0  0
  9 10  2  0  0  0
 10 11  1  0  0  0
 11 12  1  0  0  0
 11 13  2  0  0  0
 13 14  1  0  0  0
 14 15  2  0  0  0
 15 16  1  0  0  0
 16 17  2  0  0  0
 16  1  1  0  0  0
  8  3  1  0  0  0
 15  9  1  0  0  0
 27 18  1  0  0  0
 27 22  1  0  0  0
 30 33  1  0  0  0
 38 40  1  0  0  0
M  END
> <minimizedAffinity>
-7.44323

> <CNNscore>
0.5878139734

> <CNNaffinity>
6.8133788109

> <CNN_VS>
4.0049991608

> <CNNaffinity_variance>
0.1531991214

$$$$



 40 44  0  0  0  0  0  0  0  0999 V2000
   -7.2577   -3.4737  -23.4665 N   0  0  0  0  0  0  0  0  0  0  0  0
   -7.1358   -2.1766  -22.7230 C   0  0  0  0  0  0  0  0  0  0  0  0
   -7.1582   -0.8775  -23.4726 C   0  0  0  0  0  0  0  0  0  0  0  0
   -7.1645    0.4926  -24.0830 C   0  0  0  0  0  0  0  0  0  0  0  0
   -7.2492    1.0264  -25.1713 O   0  0  0  0  0  0  0  0  0  0  0  0
   -7.0188    1.4941  -22.9759 N   0  0  0  0  0  0  0  0  0  0  0  0
   -6.9225    0.7429  -21.6811 C   0  0  0  0  0  0  0  0  0  0  0  0
   -7.0087   -0.7228  -21.9881 C   0  0  0  0  0  0  0  0  0  0  0  0
   -7.3026   -0.8755  -24.9656 C   0  0  0  0  0  0  0  0  0  0  0  0
   -7.3251    0.4236  -25.7152 C   0  0  0  0  0  0  0  0  0  0  0  0
   -7.4694    0.4255  -27.2082 C   0  0  0  0  0  0  0  0  0  0  0  0
   -7.4919    1.7247  -27.9578 Cl  0  0  0  0  0  0  0  0  0  0  0  0
   -7.5913   -0.8715  -27.9517 C   0  0  0  0  0  0  0  0  0  0  0  0
   -7.5688   -2.1706  -27.2021 C   0  0  0  0  0  0  0  0  0  0  0  0
   -7.4245   -2.1726  -25.7091 C   0  0  0  0  0  0  0  0  0  0  0  0
   -7.4020   -3.4717  -24.9595 C   0  0  0  0  0  0  0  0  0  0  0  0
   -7.5239   -4.7688  -25.7029 O   0  0  0  0  0  0  0  0  0  0  0  0
   -6.9768    2.9850  -23.1355 C   0  0  0  0  0  0  0  0  0  0  0  0
   -8.2035    3.7269  -23.5770 C   0  0  0  0  0  0  0  0  0  0  0  0
   -8.1615    5.2178  -23.7366 N   0  0  0  0  0  0  0  0  0  0  0  0
   -6.8928    5.9667  -23.4547 C   0  0  0  0  0  0  0  0  0  0  0  0
   -5.6662    5.2248  -23.0132 C   0  0  0  0  0  0  0  0  0  0  0  0
   -4.3974    5.9739  -22.7313 C   0  0  0  0  0  0  0  0  0  0  0  0
   -3.1708    5.2319  -22.2899 C   0  0  0  0  0  0  0  0  0  0  0  0
   -3.2128    3.7410  -22.1302 C   0  0  0  0  0  0  0  0  0  0  0  0
   -4.4815    2.9920  -22.4121 C   0  0  0  0  0  0  0  0  0  0  0  0
   -5.7082    3.7339  -22.8536 C   0  0  0  0  0  0  0  0  0  0  0  0
   -7.2352   -4.7728  -22.7168 C   0  0  0  0  0  0  0  0  0  0  0  0
   -3.9089   -6.7865  -23.5108 C   0  0  0  0  0  0  0  0  0  0  0  0
   -5.2041   -6.0557  -23.7062 N   0  0  0  0  0  0  0  0  0  0  0  0
   -5.9399   -5.5036  -22.5214 C   0  0  0  0  0  0  0  0  0  0  0  0
   -5.3804   -5.6823  -21.1411 O   0  0  0  0  0  0  0  0  0  0  0  0
   -5.5713   -5.9384  -24.6121 H   0  0  0  0  0  0  0  0  0  0  0  0
   -6.9547   -1.8381  -20.9864 C   0  0  0  0  0  0  0  0  0  0  0  0
   -6.2594   -1.6337  -19.6732 S   0  0  0  0  0  0  0  0  0  0  0  0
   -7.4228   -0.8235  -19.1832 O   0  0  0  0  0  0  0  0  0  0  0  0
   -5.0960   -2.4440  -20.1631 O   0  0  0  0  0  0  0  0  0  0  0  0
   -5.5640   -1.4294  -18.3599 N   0  0  0  0  0  0  0  0  0  0  0  0
   -5.2470   -0.0416  -17.8869 C   0  0  0  0  0  0  0  0  0  0  0  0
   -5.3067   -2.2342  -17.7885 H   0  0  0  0  0  0  0  0  0  0  0  0
 29 30  1  0  0  0
 30 31  1  0  0  0
 31 32  2  0  0  0
 31 28  1  0  0  0
 28  1  1  0  0  0
  1  2  1  0  0  0
  3  2  1  0  0  0
  3  4  1  0  0  0
  4  5  2  0  0  0
  4  6  1  0  0  0
  6 18  1  0  0  0
 18 19  2  0  0  0
 19 20  1  0  0  0
 20 21  2  0  0  0
 21 22  1  0  0  0
 22 23  2  0  0  0
 23 24  1  0  0  0
 24 25  2  0  0  0
 25 26  1  0  0  0
 26 27  2  0  0  0
  6  7  1  0  0  0
  7  8  1  0  0  0
  8 34  1  0  0  0
 34 35  1  0  0  0
 35 36  2  0  0  0
 35 37  2  0  0  0
 35 38  1  0  0  0
 38 39  1  0  0  0
  3  9  1  0  0  0
  9 10  2  0  0  0
 10 11  1  0  0  0
 11 12  1  0  0  0
 11 13  2  0  0  0
 13 14  1  0  0  0
 14 15  2  0  0  0
 15 16  1  0  0  0
 16 17  2  0  0  0
 16  1  1  0  0  0
  8  3  1  0  0  0
 15  9  1  0  0  0
 27 18  1  0  0  0
 27 22  1  0  0  0
 30 33  1  0  0  0
 38 40  1  0  0  0
M  END
> <minimizedAffinity>
-7.21356

> <CNNscore>
0.4366948903

> <CNNaffinity>
6.7227988243

> <CNN_VS>
2.9358119965

> <CNNaffinity_variance>
0.2217218578

$$$$



 40 44  0  0  0  0  0  0  0  0999 V2000
   -7.3838   -3.0632  -23.7400 N   0  0  0  0  0  0  0  0  0  0  0  0
   -6.7090   -1.9736  -22.9606 C   0  0  0  0  0  0  0  0  0  0  0  0
   -6.1917   -0.7559  -23.6673 C   0  0  0  0  0  0  0  0  0  0  0  0
   -5.6270    0.5131  -24.2335 C   0  0  0  0  0  0  0  0  0  0  0  0
   -5.4973    1.0795  -25.3006 O   0  0  0  0  0  0  0  0  0  0  0  0
   -5.0495    1.3093  -23.1010 N   0  0  0  0  0  0  0  0  0  0  0  0
   -5.2572    0.5323  -21.8349 C   0  0  0  0  0  0  0  0  0  0  0  0
   -5.9631   -0.7441  -22.1849 C   0  0  0  0  0  0  0  0  0  0  0  0
   -6.3492   -0.6278  -25.1536 C   0  0  0  0  0  0  0  0  0  0  0  0
   -5.8319    0.5899  -25.8604 C   0  0  0  0  0  0  0  0  0  0  0  0
   -5.9894    0.7180  -27.3465 C   0  0  0  0  0  0  0  0  0  0  0  0
   -5.4721    1.9358  -28.0534 Cl  0  0  0  0  0  0  0  0  0  0  0  0
   -6.6642   -0.3716  -28.1259 C   0  0  0  0  0  0  0  0  0  0  0  0
   -7.1815   -1.5893  -27.4192 C   0  0  0  0  0  0  0  0  0  0  0  0
   -7.0240   -1.7174  -25.9330 C   0  0  0  0  0  0  0  0  0  0  0  0
   -7.5413   -2.9351  -25.2261 C   0  0  0  0  0  0  0  0  0  0  0  0
   -8.2160   -4.0247  -26.0055 O   0  0  0  0  0  0  0  0  0  0  0  0
   -4.3815    2.6475  -23.2147 C   0  0  0  0  0  0  0  0  0  0  0  0
   -2.9633    2.7396  -23.6945 C   0  0  0  0  0  0  0  0  0  0  0  0
   -2.2953    4.0778  -23.8082 N   0  0  0  0  0  0  0  0  0  0  0  0
   -3.0455    5.3240  -23.4421 C   0  0  0  0  0  0  0  0  0  0  0  0
   -4.4637    5.2320  -22.9623 C   0  0  0  0  0  0  0  0  0  0  0  0
   -5.2140    6.4783  -22.5962 C   0  0  0  0  0  0  0  0  0  0  0  0
   -6.6322    6.3862  -22.1164 C   0  0  0  0  0  0  0  0  0  0  0  0
   -7.3002    5.0480  -22.0027 C   0  0  0  0  0  0  0  0  0  0  0  0
   -6.5500    3.8018  -22.3688 C   0  0  0  0  0  0  0  0  0  0  0  0
   -5.1317    3.8938  -22.8486 C   0  0  0  0  0  0  0  0  0  0  0  0
   -7.9011   -4.2810  -23.0331 C   0  0  0  0  0  0  0  0  0  0  0  0
   -4.6827   -6.6026  -23.0821 C   0  0  0  0  0  0  0  0  0  0  0  0
   -5.5760   -5.4139  -23.2795 N   0  0  0  0  0  0  0  0  0  0  0  0
   -7.0078   -5.4697  -22.8357 C   0  0  0  0  0  0  0  0  0  0  0  0
   -7.5463   -6.7143  -22.1945 O   0  0  0  0  0  0  0  0  0  0  0  0
   -5.2226   -4.5970  -23.7003 H   0  0  0  0  0  0  0  0  0  0  0  0
   -6.3692   -1.8198  -21.2216 C   0  0  0  0  0  0  0  0  0  0  0  0
   -6.0506   -1.6794  -19.7626 S   0  0  0  0  0  0  0  0  0  0  0  0
   -7.1072   -0.6225  -19.6335 O   0  0  0  0  0  0  0  0  0  0  0  0
   -4.9940   -2.7363  -19.8916 O   0  0  0  0  0  0  0  0  0  0  0  0
   -5.7320   -1.5390  -18.3036 N   0  0  0  0  0  0  0  0  0  0  0  0
   -5.2907   -0.2139  -17.7563 C   0  0  0  0  0  0  0  0  0  0  0  0
   -5.8154   -2.3446  -17.6836 H   0  0  0  0  0  0  0  0  0  0  0  0
 29 30  1  0  0  0
 30 31  1  0  0  0
 31 32  2  0  0  0
 31 28  1  0  0  0
 28  1  1  0  0  0
  1  2  1  0  0  0
  3  2  1  0  0  0
  3  4  1  0  0  0
  4  5  2  0  0  0
  4  6  1  0  0  0
  6 18  1  0  0  0
 18 19  2  0  0  0
 19 20  1  0  0  0
 20 21  2  0  0  0
 21 22  1  0  0  0
 22 23  2  0  0  0
 23 24  1  0  0  0
 24 25  2  0  0  0
 25 26  1  0  0  0
 26 27  2  0  0  0
  6  7  1  0  0  0
  7  8  1  0  0  0
  8 34  1  0  0  0
 34 35  1  0  0  0
 35 36  2  0  0  0
 35 37  2  0  0  0
 35 38  1  0  0  0
 38 39  1  0  0  0
  3  9  1  0  0  0
  9 10  2  0  0  0
 10 11  1  0  0  0
 11 12  1  0  0  0
 11 13  2  0  0  0
 13 14  1  0  0  0
 14 15  2  0  0  0
 15 16  1  0  0  0
 16 17  2  0  0  0
 16  1  1  0  0  0
  8  3  1  0  0  0
 15  9  1  0  0  0
 27 18  1  0  0  0
 27 22  1  0  0  0
 30 33  1  0  0  0
 38 40  1  0  0  0
M  END
> <minimizedAffinity>
-6.88809

> <CNNscore>
0.4251216054

> <CNNaffinity>
6.6473870277

> <CNN_VS>
2.8259477615

> <CNNaffinity_variance>
0.0801395327

$$$$



 40 44  0  0  0  0  0  0  0  0999 V2000
   -8.3003   -2.3734  -23.7605 N   0  0  0  0  0  0  0  0  0  0  0  0
   -7.1018   -1.7977  -23.0662 C   0  0  0  0  0  0  0  0  0  0  0  0
   -5.9842   -1.2014  -23.8696 C   0  0  0  0  0  0  0  0  0  0  0  0
   -4.7955   -0.5749  -24.5363 C   0  0  0  0  0  0  0  0  0  0  0  0
   -4.3796   -0.3196  -25.6490 O   0  0  0  0  0  0  0  0  0  0  0  0
   -3.8405   -0.1375  -23.4654 N   0  0  0  0  0  0  0  0  0  0  0  0
   -4.4390   -0.4936  -22.1369 C   0  0  0  0  0  0  0  0  0  0  0  0
   -5.7639   -1.1512  -22.3867 C   0  0  0  0  0  0  0  0  0  0  0  0
   -6.0652   -1.1808  -25.3673 C   0  0  0  0  0  0  0  0  0  0  0  0
   -4.9476   -0.5846  -26.1707 C   0  0  0  0  0  0  0  0  0  0  0  0
   -5.0286   -0.5640  -27.6683 C   0  0  0  0  0  0  0  0  0  0  0  0
   -3.9109    0.0323  -28.4718 Cl  0  0  0  0  0  0  0  0  0  0  0  0
   -6.2271   -1.1397  -28.3626 C   0  0  0  0  0  0  0  0  0  0  0  0
   -7.3447   -1.7359  -27.5592 C   0  0  0  0  0  0  0  0  0  0  0  0
   -7.2637   -1.7565  -26.0616 C   0  0  0  0  0  0  0  0  0  0  0  0
   -8.3813   -2.3528  -25.2582 C   0  0  0  0  0  0  0  0  0  0  0  0
   -9.5799   -2.9285  -25.9524 O   0  0  0  0  0  0  0  0  0  0  0  0
   -2.5191    0.5376  -23.6847 C   0  0  0  0  0  0  0  0  0  0  0  0
   -1.8656    0.4867  -25.0339 C   0  0  0  0  0  0  0  0  0  0  0  0
   -0.5441    1.1618  -25.2531 N   0  0  0  0  0  0  0  0  0  0  0  0
    0.1238    1.8878  -24.1231 C   0  0  0  0  0  0  0  0  0  0  0  0
   -0.5298    1.9387  -22.7739 C   0  0  0  0  0  0  0  0  0  0  0  0
    0.1382    2.6647  -21.6439 C   0  0  0  0  0  0  0  0  0  0  0  0
   -0.5154    2.7155  -20.2947 C   0  0  0  0  0  0  0  0  0  0  0  0
   -1.8368    2.0404  -20.0755 C   0  0  0  0  0  0  0  0  0  0  0  0
   -2.5047    1.3145  -21.2055 C   0  0  0  0  0  0  0  0  0  0  0  0
   -1.8512    1.2636  -22.5547 C   0  0  0  0  0  0  0  0  0  0  0  0
   -9.4180   -2.9697  -22.9571 C   0  0  0  0  0  0  0  0  0  0  0  0
  -12.3230   -0.2876  -23.2995 C   0  0  0  0  0  0  0  0  0  0  0  0
  -10.9511   -0.8914  -23.2396 N   0  0  0  0  0  0  0  0  0  0  0  0
  -10.7898   -2.3659  -23.0170 C   0  0  0  0  0  0  0  0  0  0  0  0
  -12.0003   -3.2368  -22.8543 O   0  0  0  0  0  0  0  0  0  0  0  0
  -10.1567   -0.3198  -23.3463 H   0  0  0  0  0  0  0  0  0  0  0  0
   -6.7034   -1.6678  -21.3377 C   0  0  0  0  0  0  0  0  0  0  0  0
   -6.3484   -1.5432  -19.8858 S   0  0  0  0  0  0  0  0  0  0  0  0
   -5.4913   -2.7698  -19.9900 O   0  0  0  0  0  0  0  0  0  0  0  0
   -7.2055   -0.3165  -19.7815 O   0  0  0  0  0  0  0  0  0  0  0  0
   -5.9933   -1.4185  -18.4338 N   0  0  0  0  0  0  0  0  0  0  0  0
   -5.3073   -0.1821  -17.9328 C   0  0  0  0  0  0  0  0  0  0  0  0
   -6.2184   -2.1744  -17.7870 H   0  0  0  0  0  0  0  0  0  0  0  0
 29 30  1  0  0  0
 30 31  1  0  0  0
 31 32  2  0  0  0
 31 28  1  0  0  0
 28  1  1  0  0  0
  1  2  1  0  0  0
  3  2  1  0  0  0
  3  4  1  0  0  0
  4  5  2  0  0  0
  4  6  1  0  0  0
  6 18  1  0  0  0
 18 19  2  0  0  0
 19 20  1  0  0  0
 20 21  2  0  0  0
 21 22  1  0  0  0
 22 23  2  0  0  0
 23 24  1  0  0  0
 24 25  2  0  0  0
 25 26  1  0  0  0
 26 27  2  0  0  0
  6  7  1  0  0  0
  7  8  1  0  0  0
  8 34  1  0  0  0
 34 35  1  0  0  0
 35 36  2  0  0  0
 35 37  2  0  0  0
 35 38  1  0  0  0
 38 39  1  0  0  0
  3  9  1  0  0  0
  9 10  2  0  0  0
 10 11  1  0  0  0
 11 12  1  0  0  0
 11 13  2  0  0  0
 13 14  1  0  0  0
 14 15  2  0  0  0
 15 16  1  0  0  0
 16 17  2  0  0  0
 16  1  1  0  0  0
  8  3  1  0  0  0
 15  9  1  0  0  0
 27 18  1  0  0  0
 27 22  1  0  0  0
 30 33  1  0  0  0
 38 40  1  0  0  0
M  END
> <minimizedAffinity>
-7.04579

> <CNNscore>
0.4085108936

> <CNNaffinity>
6.4143590927

> <CNN_VS>
2.6203355789

> <CNNaffinity_variance>
0.1104501262

$$$$



 40 44  0  0  0  0  0  0  0  0999 V2000
   -7.6117   -4.0635  -25.9728 N   0  0  0  0  0  0  0  0  0  0  0  0
   -7.0792   -4.0862  -24.5707 C   0  0  0  0  0  0  0  0  0  0  0  0
   -6.9058   -2.8031  -23.8134 C   0  0  0  0  0  0  0  0  0  0  0  0
   -6.6795   -1.6072  -22.9367 C   0  0  0  0  0  0  0  0  0  0  0  0
   -6.7961   -0.3981  -22.9634 O   0  0  0  0  0  0  0  0  0  0  0  0
   -6.1399   -2.0907  -21.6233 N   0  0  0  0  0  0  0  0  0  0  0  0
   -6.0328   -3.5855  -21.6882 C   0  0  0  0  0  0  0  0  0  0  0  0
   -6.5061   -4.0257  -23.0418 C   0  0  0  0  0  0  0  0  0  0  0  0
   -7.2648   -1.4972  -24.4582 C   0  0  0  0  0  0  0  0  0  0  0  0
   -7.0914   -0.2141  -23.7009 C   0  0  0  0  0  0  0  0  0  0  0  0
   -7.4504    1.0917  -24.3458 C   0  0  0  0  0  0  0  0  0  0  0  0
   -7.2770    2.3749  -23.5885 Cl  0  0  0  0  0  0  0  0  0  0  0  0
   -7.9829    1.1145  -25.7479 C   0  0  0  0  0  0  0  0  0  0  0  0
   -8.1563   -0.1686  -26.5052 C   0  0  0  0  0  0  0  0  0  0  0  0
   -7.7973   -1.4745  -25.8604 C   0  0  0  0  0  0  0  0  0  0  0  0
   -7.9707   -2.7576  -26.6177 C   0  0  0  0  0  0  0  0  0  0  0  0
   -8.5032   -2.7349  -28.0198 O   0  0  0  0  0  0  0  0  0  0  0  0
   -5.7722   -1.2305  -20.4508 C   0  0  0  0  0  0  0  0  0  0  0  0
   -6.5179   -1.3679  -19.1565 C   0  0  0  0  0  0  0  0  0  0  0  0
   -6.1502   -0.5076  -17.9840 N   0  0  0  0  0  0  0  0  0  0  0  0
   -5.0366    0.4899  -18.1058 C   0  0  0  0  0  0  0  0  0  0  0  0
   -4.2908    0.6273  -19.4000 C   0  0  0  0  0  0  0  0  0  0  0  0
   -3.1772    1.6249  -19.5217 C   0  0  0  0  0  0  0  0  0  0  0  0
   -2.4315    1.7622  -20.8160 C   0  0  0  0  0  0  0  0  0  0  0  0
   -2.7993    0.9020  -21.9885 C   0  0  0  0  0  0  0  0  0  0  0  0
   -3.9128   -0.0956  -21.8667 C   0  0  0  0  0  0  0  0  0  0  0  0
   -4.6586   -0.2329  -20.5725 C   0  0  0  0  0  0  0  0  0  0  0  0
   -7.7851   -5.3467  -26.7301 C   0  0  0  0  0  0  0  0  0  0  0  0
   -5.1086   -7.7866  -28.3527 C   0  0  0  0  0  0  0  0  0  0  0  0
   -6.2149   -7.2770  -27.4774 N   0  0  0  0  0  0  0  0  0  0  0  0
   -6.6787   -5.8563  -27.6055 C   0  0  0  0  0  0  0  0  0  0  0  0
   -6.0362   -4.9451  -28.6091 O   0  0  0  0  0  0  0  0  0  0  0  0
   -6.6366   -7.8750  -26.8187 H   0  0  0  0  0  0  0  0  0  0  0  0
   -6.5687   -5.4403  -23.5368 C   0  0  0  0  0  0  0  0  0  0  0  0
   -5.4595   -6.3974  -23.2150 S   0  0  0  0  0  0  0  0  0  0  0  0
   -5.6475   -7.0629  -24.5460 O   0  0  0  0  0  0  0  0  0  0  0  0
   -5.2714   -5.7318  -21.8839 O   0  0  0  0  0  0  0  0  0  0  0  0
   -4.3502   -7.3544  -22.8931 N   0  0  0  0  0  0  0  0  0  0  0  0
   -2.9406   -7.0297  -23.2900 C   0  0  0  0  0  0  0  0  0  0  0  0
   -4.5545   -8.2260  -22.4043 H   0  0  0  0  0  0  0  0  0  0  0  0
 29 30  1  0  0  0
 30 31  1  0  0  0
 31 32  2  0  0  0
 31 28  1  0  0  0
 28  1  1  0  0  0
  1  2  1  0  0  0
  3  2  1  0  0  0
  3  4  1  0  0  0
  4  5  2  0  0  0
  4  6  1  0  0  0
  6 18  1  0  0  0
 18 19  2  0  0  0
 19 20  1  0  0  0
 20 21  2  0  0  0
 21 22  1  0  0  0
 22 23  2  0  0  0
 23 24  1  0  0  0
 24 25  2  0  0  0
 25 26  1  0  0  0
 26 27  2  0  0  0
  6  7  1  0  0  0
  7  8  1  0  0  0
  8 34  1  0  0  0
 34 35  1  0  0  0
 35 36  2  0  0  0
 35 37  2  0  0  0
 35 38  1  0  0  0
 38 39  1  0  0  0
  3  9  1  0  0  0
  9 10  2  0  0  0
 10 11  1  0  0  0
 11 12  1  0  0  0
 11 13  2  0  0  0
 13 14  1  0  0  0
 14 15  2  0  0  0
 15 16  1  0  0  0
 16 17  2  0  0  0
 16  1  1  0  0  0
  8  3  1  0  0  0
 15  9  1  0  0  0
 27 18  1  0  0  0
 27 22  1  0  0  0
 30 33  1  0  0  0
 38 40  1  0  0  0
M  END
> <minimizedAffinity>
-8.21027

> <CNNscore>
0.3918753862

> <CNNaffinity>
6.5015935898

> <CNN_VS>
2.5478146076

> <CNNaffinity_variance>
0.1894798577

$$$$



 40 44  0  0  0  0  0  0  0  0999 V2000
  -11.5548    3.9772  -23.9941 N   0  0  0  0  0  0  0  0  0  0  0  0
  -10.1674    3.4173  -23.8868 C   0  0  0  0  0  0  0  0  0  0  0  0
   -9.9671    1.9498  -23.6498 C   0  0  0  0  0  0  0  0  0  0  0  0
   -9.6126    0.5112  -23.4154 C   0  0  0  0  0  0  0  0  0  0  0  0
  -10.1514   -0.5652  -23.2503 O   0  0  0  0  0  0  0  0  0  0  0  0
   -8.1170    0.4024  -23.3788 N   0  0  0  0  0  0  0  0  0  0  0  0
   -7.5471    1.7737  -23.5906 C   0  0  0  0  0  0  0  0  0  0  0  0
   -8.6906    2.7300  -23.7581 C   0  0  0  0  0  0  0  0  0  0  0  0
  -11.1543    1.0421  -23.5199 C   0  0  0  0  0  0  0  0  0  0  0  0
  -10.9541   -0.4254  -23.2829 C   0  0  0  0  0  0  0  0  0  0  0  0
  -12.1413   -1.3330  -23.1531 C   0  0  0  0  0  0  0  0  0  0  0  0
  -11.9411   -2.8006  -22.9160 Cl  0  0  0  0  0  0  0  0  0  0  0  0
  -13.5287   -0.7730  -23.2603 C   0  0  0  0  0  0  0  0  0  0  0  0
  -13.7289    0.6945  -23.4974 C   0  0  0  0  0  0  0  0  0  0  0  0
  -12.5418    1.6021  -23.6272 C   0  0  0  0  0  0  0  0  0  0  0  0
  -12.7420    3.0697  -23.8643 C   0  0  0  0  0  0  0  0  0  0  0  0
  -14.1294    3.6296  -23.9715 O   0  0  0  0  0  0  0  0  0  0  0  0
   -7.3295   -0.8566  -23.1675 C   0  0  0  0  0  0  0  0  0  0  0  0
   -7.0487   -1.7688  -24.3248 C   0  0  0  0  0  0  0  0  0  0  0  0
   -6.2613   -3.0279  -24.1135 N   0  0  0  0  0  0  0  0  0  0  0  0
   -5.7545   -3.3748  -22.7450 C   0  0  0  0  0  0  0  0  0  0  0  0
   -6.0353   -2.4626  -21.5878 C   0  0  0  0  0  0  0  0  0  0  0  0
   -5.5285   -2.8095  -20.2192 C   0  0  0  0  0  0  0  0  0  0  0  0
   -5.8093   -1.8973  -19.0620 C   0  0  0  0  0  0  0  0  0  0  0  0
   -6.5967   -0.6383  -19.2733 C   0  0  0  0  0  0  0  0  0  0  0  0
   -7.1035   -0.2914  -20.6418 C   0  0  0  0  0  0  0  0  0  0  0  0
   -6.8227   -1.2035  -21.7990 C   0  0  0  0  0  0  0  0  0  0  0  0
  -11.7550    5.4448  -24.2311 C   0  0  0  0  0  0  0  0  0  0  0  0
  -13.9783    6.4711  -27.3542 C   0  0  0  0  0  0  0  0  0  0  0  0
  -13.5893    5.9776  -25.9922 N   0  0  0  0  0  0  0  0  0  0  0  0
  -12.1439    5.9383  -25.5932 C   0  0  0  0  0  0  0  0  0  0  0  0
  -11.0874    6.3925  -26.5563 O   0  0  0  0  0  0  0  0  0  0  0  0
  -14.2828    5.6795  -25.3601 H   0  0  0  0  0  0  0  0  0  0  0  0
   -8.5774    4.2072  -23.9927 C   0  0  0  0  0  0  0  0  0  0  0  0
   -7.9273    5.0825  -22.9627 S   0  0  0  0  0  0  0  0  0  0  0  0
   -8.5740    6.2877  -23.5785 O   0  0  0  0  0  0  0  0  0  0  0  0
   -7.2805    3.8774  -22.3467 O   0  0  0  0  0  0  0  0  0  0  0  0
   -7.2771    5.9579  -21.9326 N   0  0  0  0  0  0  0  0  0  0  0  0
   -6.0401    6.7324  -22.2792 C   0  0  0  0  0  0  0  0  0  0  0  0
   -7.6761    6.0264  -20.9964 H   0  0  0  0  0  0  0  0  0  0  0  0
 29 30  1  0  0  0
 30 31  1  0  0  0
 31 32  2  0  0  0
 31 28  1  0  0  0
 28  1  1  0  0  0
  1  2  1  0  0  0
  3  2  1  0  0  0
  3  4  1  0  0  0
  4  5  2  0  0  0
  4  6  1  0  0  0
  6 18  1  0  0  0
 18 19  2  0  0  0
 19 20  1  0  0  0
 20 21  2  0  0  0
 21 22  1  0  0  0
 22 23  2  0  0  0
 23 24  1  0  0  0
 24 25  2  0  0  0
 25 26  1  0  0  0
 26 27  2  0  0  0
  6  7  1  0  0  0
  7  8  1  0  0  0
  8 34  1  0  0  0
 34 35  1  0  0  0
 35 36  2  0  0  0
 35 37  2  0  0  0
 35 38  1  0  0  0
 38 39  1  0  0  0
  3  9  1  0  0  0
  9 10  2  0  0  0
 10 11  1  0  0  0
 11 12  1  0  0  0
 11 13  2  0  0  0
 13 14  1  0  0  0
 14 15  2  0  0  0
 15 16  1  0  0  0
 16 17  2  0  0  0
 16  1  1  0  0  0
  8  3  1  0  0  0
 15  9  1  0  0  0
 27 18  1  0  0  0
 27 22  1  0  0  0
 30 33  1  0  0  0
 38 40  1  0  0  0
M  END
> <minimizedAffinity>
-8.11987

> <CNNscore>
0.3615860343

> <CNNaffinity>
6.5162782669

> <CNN_VS>
2.3561952114

> <CNNaffinity_variance>
0.0651807338

$$$$



 40 44  0  0  0  0  0  0  0  0999 V2000
   -9.6133    2.9168  -24.6356 N   0  0  0  0  0  0  0  0  0  0  0  0
   -8.6244    1.7921  -24.7203 C   0  0  0  0  0  0  0  0  0  0  0  0
   -9.0433    0.3968  -24.3631 C   0  0  0  0  0  0  0  0  0  0  0  0
   -9.3152   -1.0425  -24.0396 C   0  0  0  0  0  0  0  0  0  0  0  0
  -10.2232   -1.7562  -23.6620 O   0  0  0  0  0  0  0  0  0  0  0  0
   -8.0489   -1.8150  -24.2626 N   0  0  0  0  0  0  0  0  0  0  0  0
   -6.9943   -0.8532  -24.7240 C   0  0  0  0  0  0  0  0  0  0  0  0
   -7.6089    0.5138  -24.7860 C   0  0  0  0  0  0  0  0  0  0  0  0
  -10.4510    0.1262  -23.9212 C   0  0  0  0  0  0  0  0  0  0  0  0
  -10.8698   -1.2692  -23.5640 C   0  0  0  0  0  0  0  0  0  0  0  0
  -12.2775   -1.5397  -23.1222 C   0  0  0  0  0  0  0  0  0  0  0  0
  -12.6964   -2.9351  -22.7649 Cl  0  0  0  0  0  0  0  0  0  0  0  0
  -13.2663   -0.4150  -23.0375 C   0  0  0  0  0  0  0  0  0  0  0  0
  -12.8475    0.9803  -23.3947 C   0  0  0  0  0  0  0  0  0  0  0  0
  -11.4398    1.2509  -23.8366 C   0  0  0  0  0  0  0  0  0  0  0  0
  -11.0209    2.6463  -24.1938 C   0  0  0  0  0  0  0  0  0  0  0  0
  -12.0097    3.7710  -24.1092 O   0  0  0  0  0  0  0  0  0  0  0  0
   -7.8688   -3.2903  -24.0599 C   0  0  0  0  0  0  0  0  0  0  0  0
   -7.2307   -3.8022  -22.8026 C   0  0  0  0  0  0  0  0  0  0  0  0
   -7.0506   -5.2775  -22.5999 N   0  0  0  0  0  0  0  0  0  0  0  0
   -7.5086   -6.2408  -23.6545 C   0  0  0  0  0  0  0  0  0  0  0  0
   -8.1466   -5.7289  -24.9118 C   0  0  0  0  0  0  0  0  0  0  0  0
   -8.6046   -6.6923  -25.9665 C   0  0  0  0  0  0  0  0  0  0  0  0
   -9.2426   -6.1802  -27.2238 C   0  0  0  0  0  0  0  0  0  0  0  0
   -9.4227   -4.7050  -27.4265 C   0  0  0  0  0  0  0  0  0  0  0  0
   -8.9648   -3.7416  -26.3719 C   0  0  0  0  0  0  0  0  0  0  0  0
   -8.3267   -4.2536  -25.1145 C   0  0  0  0  0  0  0  0  0  0  0  0
   -9.1944    4.3122  -24.9929 C   0  0  0  0  0  0  0  0  0  0  0  0
   -7.0725    5.4595  -21.8414 C   0  0  0  0  0  0  0  0  0  0  0  0
   -7.7148    4.5816  -22.8743 N   0  0  0  0  0  0  0  0  0  0  0  0
   -8.5521    5.1901  -23.9600 C   0  0  0  0  0  0  0  0  0  0  0  0
   -8.7472    6.6764  -24.0128 O   0  0  0  0  0  0  0  0  0  0  0  0
   -7.5867    3.6061  -22.8397 H   0  0  0  0  0  0  0  0  0  0  0  0
   -6.9115    1.7761  -25.1986 C   0  0  0  0  0  0  0  0  0  0  0  0
   -5.4293    1.9095  -25.0117 S   0  0  0  0  0  0  0  0  0  0  0  0
   -5.6443    2.2894  -23.5767 O   0  0  0  0  0  0  0  0  0  0  0  0
   -5.2141    1.5296  -26.4469 O   0  0  0  0  0  0  0  0  0  0  0  0
   -3.9470    2.0430  -24.8249 N   0  0  0  0  0  0  0  0  0  0  0  0
   -3.2970    1.5133  -23.5810 C   0  0  0  0  0  0  0  0  0  0  0  0
   -3.3809    2.4939  -25.5437 H   0  0  0  0  0  0  0  0  0  0  0  0
 29 30  1  0  0  0
 30 31  1  0  0  0
 31 32  2  0  0  0
 31 28  1  0  0  0
 28  1  1  0  0  0
  1  2  1  0  0  0
  3  2  1  0  0  0
  3  4  1  0  0  0
  4  5  2  0  0  0
  4  6  1  0  0  0
  6 18  1  0  0  0
 18 19  2  0  0  0
 19 20  1  0  0  0
 20 21  2  0  0  0
 21 22  1  0  0  0
 22 23  2  0  0  0
 23 24  1  0  0  0
 24 25  2  0  0  0
 25 26  1  0  0  0
 26 27  2  0  0  0
  6  7  1  0  0  0
  7  8  1  0  0  0
  8 34  1  0  0  0
 34 35  1  0  0  0
 35 36  2  0  0  0
 35 37  2  0  0  0
 35 38  1  0  0  0
 38 39  1  0  0  0
  3  9  1  0  0  0
  9 10  2  0  0  0
 10 11  1  0  0  0
 11 12  1  0  0  0
 11 13  2  0  0  0
 13 14  1  0  0  0
 14 15  2  0  0  0
 15 16  1  0  0  0
 16 17  2  0  0  0
 16  1  1  0  0  0
  8  3  1  0  0  0
 15  9  1  0  0  0
 27 18  1  0  0  0
 27 22  1  0  0  0
 30 33  1  0  0  0
 38 40  1  0  0  0
M  END
> <minimizedAffinity>
-6.84429

> <CNNscore>
0.3354116380

> <CNNaffinity>
6.5130858421

> <CNN_VS>
2.1845648289

> <CNNaffinity_variance>
0.0644299984

$$$$



 40 44  0  0  0  0  0  0  0  0999 V2000
   -7.0137   -1.1055  -22.2213 N   0  0  0  0  0  0  0  0  0  0  0  0
   -7.1026    0.2126  -22.9318 C   0  0  0  0  0  0  0  0  0  0  0  0
   -8.4158    0.6781  -23.4873 C   0  0  0  0  0  0  0  0  0  0  0  0
   -9.6533    1.2720  -24.0921 C   0  0  0  0  0  0  0  0  0  0  0  0
  -10.8322    1.0170  -24.2388 O   0  0  0  0  0  0  0  0  0  0  0  0
   -9.2852    2.5946  -24.6963 N   0  0  0  0  0  0  0  0  0  0  0  0
   -7.8201    2.8181  -24.4651 C   0  0  0  0  0  0  0  0  0  0  0  0
   -7.2828    1.6336  -23.7179 C   0  0  0  0  0  0  0  0  0  0  0  0
   -9.6402   -0.1745  -23.3324 C   0  0  0  0  0  0  0  0  0  0  0  0
  -10.9535    0.2910  -23.8879 C   0  0  0  0  0  0  0  0  0  0  0  0
  -12.1778   -0.5616  -23.7329 C   0  0  0  0  0  0  0  0  0  0  0  0
  -13.4912   -0.0961  -24.2885 Cl  0  0  0  0  0  0  0  0  0  0  0  0
  -12.0889   -1.8797  -23.0224 C   0  0  0  0  0  0  0  0  0  0  0  0
  -10.7757   -2.3451  -22.4669 C   0  0  0  0  0  0  0  0  0  0  0  0
   -9.5513   -1.4926  -22.6218 C   0  0  0  0  0  0  0  0  0  0  0  0
   -8.2380   -1.9580  -22.0663 C   0  0  0  0  0  0  0  0  0  0  0  0
   -8.1491   -3.2761  -21.3558 O   0  0  0  0  0  0  0  0  0  0  0  0
  -10.2183    3.5296  -25.4071 C   0  0  0  0  0  0  0  0  0  0  0  0
  -10.0349    3.8035  -26.8704 C   0  0  0  0  0  0  0  0  0  0  0  0
  -10.9680    4.7385  -27.5812 N   0  0  0  0  0  0  0  0  0  0  0  0
  -12.0845    5.3994  -26.8286 C   0  0  0  0  0  0  0  0  0  0  0  0
  -12.2680    5.1255  -25.3652 C   0  0  0  0  0  0  0  0  0  0  0  0
  -13.3846    5.7865  -24.6127 C   0  0  0  0  0  0  0  0  0  0  0  0
  -13.5679    5.5125  -23.1493 C   0  0  0  0  0  0  0  0  0  0  0  0
  -12.6348    4.5775  -22.4386 C   0  0  0  0  0  0  0  0  0  0  0  0
  -11.5183    3.9166  -23.1912 C   0  0  0  0  0  0  0  0  0  0  0  0
  -11.3348    4.1905  -24.6545 C   0  0  0  0  0  0  0  0  0  0  0  0
   -5.7003   -1.5709  -21.6657 C   0  0  0  0  0  0  0  0  0  0  0  0
   -5.4838   -5.5277  -21.8822 C   0  0  0  0  0  0  0  0  0  0  0  0
   -5.6618   -4.0938  -22.2850 N   0  0  0  0  0  0  0  0  0  0  0  0
   -5.5223   -3.0048  -21.2630 C   0  0  0  0  0  0  0  0  0  0  0  0
   -5.2048   -3.3498  -19.8381 O   0  0  0  0  0  0  0  0  0  0  0  0
   -5.8702   -3.8674  -23.2202 H   0  0  0  0  0  0  0  0  0  0  0  0
   -5.8619    1.4389  -23.2784 C   0  0  0  0  0  0  0  0  0  0  0  0
   -4.9160    2.6028  -23.2610 S   0  0  0  0  0  0  0  0  0  0  0  0
   -4.3816    2.1886  -24.5999 O   0  0  0  0  0  0  0  0  0  0  0  0
   -5.4504    3.0171  -21.9219 O   0  0  0  0  0  0  0  0  0  0  0  0
   -3.9700    3.7668  -23.2435 N   0  0  0  0  0  0  0  0  0  0  0  0
   -3.0072    3.9339  -22.1054 C   0  0  0  0  0  0  0  0  0  0  0  0
   -3.9815    4.4447  -24.0055 H   0  0  0  0  0  0  0  0  0  0  0  0
 29 30  1  0  0  0
 30 31  1  0  0  0
 31 32  2  0  0  0
 31 28  1  0  0  0
 28  1  1  0  0  0
  1  2  1  0  0  0
  3  2  1  0  0  0
  3  4  1  0  0  0
  4  5  2  0  0  0
  4  6  1  0  0  0
  6 18  1  0  0  0
 18 19  2  0  0  0
 19 20  1  0  0  0
 20 21  2  0  0  0
 21 22  1  0  0  0
 22 23  2  0  0  0
 23 24  1  0  0  0
 24 25  2  0  0  0
 25 26  1  0  0  0
 26 27  2  0  0  0
  6  7  1  0  0  0
  7  8  1  0  0  0
  8 34  1  0  0  0
 34 35  1  0  0  0
 35 36  2  0  0  0
 35 37  2  0  0  0
 35 38  1  0  0  0
 38 39  1  0  0  0
  3  9  1  0  0  0
  9 10  2  0  0  0
 10 11  1  0  0  0
 11 12  1  0  0  0
 11 13  2  0  0  0
 13 14  1  0  0  0
 14 15  2  0  0  0
 15 16  1  0  0  0
 16 17  2  0  0  0
 16  1  1  0  0  0
  8  3  1  0  0  0
 15  9  1  0  0  0
 27 18  1  0  0  0
 27 22  1  0  0  0
 30 33  1  0  0  0
 38 40  1  0  0  0
M  END
> <minimizedAffinity>
-6.81962

> <CNNscore>
0.3212113976

> <CNNaffinity>
6.3729534149

> <CNN_VS>
2.0470652580

> <CNNaffinity_variance>
0.0983626992

$$$$
