


 20 22  0  0  0  0  0  0  0  0999 V2000
    8.9936   -2.7922   23.1896 C   0  0  0  0  0  0  0  0  0  0  0  0
   10.2207   -1.9416   23.3339 C   0  0  0  0  0  0  0  0  0  0  0  0
   10.4548   -0.7971   22.3931 C   0  0  0  0  0  0  0  0  0  0  0  0
   11.6819    0.0534   22.5374 N   0  0  0  0  0  0  0  0  0  0  0  0
   12.6749   -0.2406   23.6225 C   0  0  0  0  0  0  0  0  0  0  0  0
   12.4408   -1.3852   24.5634 C   0  0  0  0  0  0  0  0  0  0  0  0
   13.4337   -1.6792   25.6485 C   0  0  0  0  0  0  0  0  0  0  0  0
   13.1996   -2.8237   26.5893 C   0  0  0  0  0  0  0  0  0  0  0  0
   11.9725   -3.6743   26.4450 C   0  0  0  0  0  0  0  0  0  0  0  0
   10.9795   -3.3803   25.3599 C   0  0  0  0  0  0  0  0  0  0  0  0
   11.2137   -2.2357   24.4191 C   0  0  0  0  0  0  0  0  0  0  0  0
    8.4400   -4.8434   24.6850 O   0  0  0  0  0  0  0  0  0  0  0  0
    8.3363   -3.3731   24.4063 C   0  0  0  0  0  0  0  0  0  0  0  0
    7.5753   -2.4838   25.3444 N   0  0  0  0  0  0  0  0  0  0  0  0
    6.9572   -3.1650   26.5293 C   0  0  0  0  0  0  0  0  0  0  0  0
    6.1442   -2.5614   27.6360 C   0  0  0  0  0  0  0  0  0  0  0  0
    5.7485   -1.1277   27.8312 C   0  0  0  0  0  0  0  0  0  0  0  0
    6.0681    0.0565   26.9678 C   0  0  0  0  0  0  0  0  0  0  0  0
    6.8623    0.0995   25.6960 C   0  0  0  0  0  0  0  0  0  0  0  0
    7.5331   -1.0310   24.9736 C   0  0  0  0  0  0  0  0  0  0  0  0
 12 13  2  0  0  0
 13  1  1  0  0  0
  1  2  1  0  0  0
  2  3  2  0  0  0
  3  4  1  0  0  0
  4  5  2  0  0  0
  5  6  1  0  0  0
  6  7  2  0  0  0
  7  8  1  0  0  0
  8  9  2  0  0  0
  9 10  1  0  0  0
 10 11  2  0  0  0
 13 14  1  0  0  0
 14 15  1  0  0  0
 15 16  1  0  0  0
 16 17  2  0  0  0
 17 18  1  0  0  0
 18 19  2  0  0  0
 19 20  1  0  0  0
 11  2  1  0  0  0
 20 14  1  0  0  0
 11  6  1  0  0  0
M  END
> <minimizedAffinity>
-6.51784

> <CNNscore>
0.7442066073

> <CNNaffinity>
5.4046401978

> <CNN_VS>
4.0221691132

> <CNNaffinity_variance>
0.0839644521

$$$$



 20 22  0  0  0  0  0  0  0  0999 V2000
    6.9663   -0.2881   21.2867 C   0  0  0  0  0  0  0  0  0  0  0  0
    6.1688    0.2013   20.1142 C   0  0  0  0  0  0  0  0  0  0  0  0
    6.6676   -0.0305   18.7187 C   0  0  0  0  0  0  0  0  0  0  0  0
    5.8701    0.4589   17.5463 N   0  0  0  0  0  0  0  0  0  0  0  0
    4.5740    1.1801   17.7694 C   0  0  0  0  0  0  0  0  0  0  0  0
    4.0752    1.4119   19.1649 C   0  0  0  0  0  0  0  0  0  0  0  0
    2.7790    2.1331   19.3880 C   0  0  0  0  0  0  0  0  0  0  0  0
    2.2803    2.3649   20.7835 C   0  0  0  0  0  0  0  0  0  0  0  0
    3.0777    1.8755   21.9559 C   0  0  0  0  0  0  0  0  0  0  0  0
    4.3739    1.1543   21.7329 C   0  0  0  0  0  0  0  0  0  0  0  0
    4.8726    0.9225   20.3374 C   0  0  0  0  0  0  0  0  0  0  0  0
    8.5376    1.7770   21.1578 O   0  0  0  0  0  0  0  0  0  0  0  0
    8.2520    0.3909   21.6551 C   0  0  0  0  0  0  0  0  0  0  0  0
    9.2523   -0.3162   22.5209 N   0  0  0  0  0  0  0  0  0  0  0  0
   10.5036    0.4513   22.8295 C   0  0  0  0  0  0  0  0  0  0  0  0
   11.6806    0.0272   23.6570 C   0  0  0  0  0  0  0  0  0  0  0  0
   11.8971   -1.2689   24.3804 C   0  0  0  0  0  0  0  0  0  0  0  0
   10.9899   -2.4612   24.4548 C   0  0  0  0  0  0  0  0  0  0  0  0
    9.6422   -2.6517   23.8242 C   0  0  0  0  0  0  0  0  0  0  0  0
    8.8689   -1.6971   22.9636 C   0  0  0  0  0  0  0  0  0  0  0  0
 12 13  2  0  0  0
 13  1  1  0  0  0
  1  2  1  0  0  0
  2  3  2  0  0  0
  3  4  1  0  0  0
  4  5  2  0  0  0
  5  6  1  0  0  0
  6  7  2  0  0  0
  7  8  1  0  0  0
  8  9  2  0  0  0
  9 10  1  0  0  0
 10 11  2  0  0  0
 13 14  1  0  0  0
 14 15  1  0  0  0
 15 16  1  0  0  0
 16 17  2  0  0  0
 17 18  1  0  0  0
 18 19  2  0  0  0
 19 20  1  0  0  0
 11  2  1  0  0  0
 20 14  1  0  0  0
 11  6  1  0  0  0
M  END
> <minimizedAffinity>
-6.95029

> <CNNscore>
0.6905760169

> <CNNaffinity>
5.3067035675

> <CNN_VS>
3.6646821499

> <CNNaffinity_variance>
0.0464073233

$$$$



 20 22  0  0  0  0  0  0  0  0999 V2000
    9.1098   -2.0250   22.4112 C   0  0  0  0  0  0  0  0  0  0  0  0
   10.4606   -1.8659   23.0435 C   0  0  0  0  0  0  0  0  0  0  0  0
   11.4986   -1.0039   22.3881 C   0  0  0  0  0  0  0  0  0  0  0  0
   12.8495   -0.8448   23.0204 N   0  0  0  0  0  0  0  0  0  0  0  0
   13.1624   -1.5476   24.3081 C   0  0  0  0  0  0  0  0  0  0  0  0
   12.1244   -2.4095   24.9635 C   0  0  0  0  0  0  0  0  0  0  0  0
   12.4373   -3.1123   26.2512 C   0  0  0  0  0  0  0  0  0  0  0  0
   11.3993   -3.9742   26.9066 C   0  0  0  0  0  0  0  0  0  0  0  0
   10.0484   -4.1333   26.2744 C   0  0  0  0  0  0  0  0  0  0  0  0
    9.7355   -3.4306   24.9867 C   0  0  0  0  0  0  0  0  0  0  0  0
   10.7735   -2.5687   24.3313 C   0  0  0  0  0  0  0  0  0  0  0  0
    8.1902   -0.5174   20.5055 O   0  0  0  0  0  0  0  0  0  0  0  0
    8.3419   -0.8151   21.9679 C   0  0  0  0  0  0  0  0  0  0  0  0
    7.7258    0.0971   22.9869 N   0  0  0  0  0  0  0  0  0  0  0  0
    6.9801    1.2771   22.4377 C   0  0  0  0  0  0  0  0  0  0  0  0
    6.2613    2.3600   23.1863 C   0  0  0  0  0  0  0  0  0  0  0  0
    6.1106    2.5306   24.6690 C   0  0  0  0  0  0  0  0  0  0  0  0
    6.6415    1.6601   25.7692 C   0  0  0  0  0  0  0  0  0  0  0  0
    7.4542    0.4042   25.6585 C   0  0  0  0  0  0  0  0  0  0  0  0
    7.9368   -0.2914   24.4202 C   0  0  0  0  0  0  0  0  0  0  0  0
 12 13  2  0  0  0
 13  1  1  0  0  0
  1  2  1  0  0  0
  2  3  2  0  0  0
  3  4  1  0  0  0
  4  5  2  0  0  0
  5  6  1  0  0  0
  6  7  2  0  0  0
  7  8  1  0  0  0
  8  9  2  0  0  0
  9 10  1  0  0  0
 10 11  2  0  0  0
 13 14  1  0  0  0
 14 15  1  0  0  0
 15 16  1  0  0  0
 16 17  2  0  0  0
 17 18  1  0  0  0
 18 19  2  0  0  0
 19 20  1  0  0  0
 11  2  1  0  0  0
 20 14  1  0  0  0
 11  6  1  0  0  0
M  END
> <minimizedAffinity>
-6.36066

> <CNNscore>
0.6550415754

> <CNNaffinity>
5.2882018089

> <CNN_VS>
3.4639921188

> <CNNaffinity_variance>
0.0468420573

$$$$



 20 22  0  0  0  0  0  0  0  0999 V2000
    8.0282   -2.2674   25.9958 C   0  0  0  0  0  0  0  0  0  0  0  0
    9.5090   -2.4947   25.9208 C   0  0  0  0  0  0  0  0  0  0  0  0
   10.1215   -3.6800   26.6061 C   0  0  0  0  0  0  0  0  0  0  0  0
   11.6023   -3.9072   26.5311 N   0  0  0  0  0  0  0  0  0  0  0  0
   12.4706   -2.9491   25.7709 C   0  0  0  0  0  0  0  0  0  0  0  0
   11.8581   -1.7636   25.0855 C   0  0  0  0  0  0  0  0  0  0  0  0
   12.7263   -0.8055   24.3253 C   0  0  0  0  0  0  0  0  0  0  0  0
   12.1138    0.3799   23.6400 C   0  0  0  0  0  0  0  0  0  0  0  0
   10.6330    0.6071   23.7150 C   0  0  0  0  0  0  0  0  0  0  0  0
    9.7647   -0.3511   24.4752 C   0  0  0  0  0  0  0  0  0  0  0  0
   10.3773   -1.5364   25.1605 C   0  0  0  0  0  0  0  0  0  0  0  0
    6.6461   -0.9693   24.2197 O   0  0  0  0  0  0  0  0  0  0  0  0
    7.2062   -2.2594   24.7411 C   0  0  0  0  0  0  0  0  0  0  0  0
    6.9442   -3.5415   24.0079 N   0  0  0  0  0  0  0  0  0  0  0  0
    6.1116   -3.4225   22.7659 C   0  0  0  0  0  0  0  0  0  0  0  0
    5.6787   -4.5057   21.8229 C   0  0  0  0  0  0  0  0  0  0  0  0
    5.9713   -5.9754   21.8890 C   0  0  0  0  0  0  0  0  0  0  0  0
    6.7693   -6.7249   22.9144 C   0  0  0  0  0  0  0  0  0  0  0  0
    7.4716   -6.1898   24.1270 C   0  0  0  0  0  0  0  0  0  0  0  0
    7.5495   -4.7730   24.6137 C   0  0  0  0  0  0  0  0  0  0  0  0
 12 13  2  0  0  0
 13  1  1  0  0  0
  1  2  1  0  0  0
  2  3  2  0  0  0
  3  4  1  0  0  0
  4  5  2  0  0  0
  5  6  1  0  0  0
  6  7  2  0  0  0
  7  8  1  0  0  0
  8  9  2  0  0  0
  9 10  1  0  0  0
 10 11  2  0  0  0
 13 14  1  0  0  0
 14 15  1  0  0  0
 15 16  1  0  0  0
 16 17  2  0  0  0
 17 18  1  0  0  0
 18 19  2  0  0  0
 19 20  1  0  0  0
 11  2  1  0  0  0
 20 14  1  0  0  0
 11  6  1  0  0  0
M  END
> <minimizedAffinity>
-6.64045

> <CNNscore>
0.6495060921

> <CNNaffinity>
5.4100141525

> <CNN_VS>
3.5138370991

> <CNNaffinity_variance>
0.0586894155

$$$$



 20 22  0  0  0  0  0  0  0  0999 V2000
    9.7942   -1.7325   22.3472 C   0  0  0  0  0  0  0  0  0  0  0  0
    9.8020   -2.5967   23.5732 C   0  0  0  0  0  0  0  0  0  0  0  0
    8.6048   -3.4368   23.9062 C   0  0  0  0  0  0  0  0  0  0  0  0
    8.6125   -4.3010   25.1323 N   0  0  0  0  0  0  0  0  0  0  0  0
    9.8175   -4.3251   26.0253 C   0  0  0  0  0  0  0  0  0  0  0  0
   11.0147   -3.4850   25.6923 C   0  0  0  0  0  0  0  0  0  0  0  0
   12.2197   -3.5091   26.5853 C   0  0  0  0  0  0  0  0  0  0  0  0
   13.4169   -2.6690   26.2522 C   0  0  0  0  0  0  0  0  0  0  0  0
   13.4091   -1.8048   25.0262 C   0  0  0  0  0  0  0  0  0  0  0  0
   12.2042   -1.7807   24.1332 C   0  0  0  0  0  0  0  0  0  0  0  0
   11.0070   -2.6208   24.4662 C   0  0  0  0  0  0  0  0  0  0  0  0
    7.4887   -0.5679   22.0675 O   0  0  0  0  0  0  0  0  0  0  0  0
    8.9656   -0.4826   22.3159 C   0  0  0  0  0  0  0  0  0  0  0  0
    9.6137    0.8526   22.5329 N   0  0  0  0  0  0  0  0  0  0  0  0
    8.6956    2.0377   22.4815 C   0  0  0  0  0  0  0  0  0  0  0  0
    9.0314    3.4890   22.6572 C   0  0  0  0  0  0  0  0  0  0  0  0
   10.3680    4.1138   22.9276 C   0  0  0  0  0  0  0  0  0  0  0  0
   11.6991    3.4414   23.0891 C   0  0  0  0  0  0  0  0  0  0  0  0
   12.0222    1.9782   23.0201 C   0  0  0  0  0  0  0  0  0  0  0  0
   11.0941    0.8261   22.7725 C   0  0  0  0  0  0  0  0  0  0  0  0
 12 13  2  0  0  0
 13  1  1  0  0  0
  1  2  1  0  0  0
  2  3  2  0  0  0
  3  4  1  0  0  0
  4  5  2  0  0  0
  5  6  1  0  0  0
  6  7  2  0  0  0
  7  8  1  0  0  0
  8  9  2  0  0  0
  9 10  1  0  0  0
 10 11  2  0  0  0
 13 14  1  0  0  0
 14 15  1  0  0  0
 15 16  1  0  0  0
 16 17  2  0  0  0
 17 18  1  0  0  0
 18 19  2  0  0  0
 19 20  1  0  0  0
 11  2  1  0  0  0
 20 14  1  0  0  0
 11  6  1  0  0  0
M  END
> <minimizedAffinity>
-6.87322

> <CNNscore>
0.6226830482

> <CNNaffinity>
5.2589945793

> <CNN_VS>
3.2746868134

> <CNNaffinity_variance>
0.1019606814

$$$$



 20 22  0  0  0  0  0  0  0  0999 V2000
    8.1156   -1.6069   25.1410 C   0  0  0  0  0  0  0  0  0  0  0  0
    9.4449   -1.0149   24.7767 C   0  0  0  0  0  0  0  0  0  0  0  0
    9.5094    0.2072   23.9094 C   0  0  0  0  0  0  0  0  0  0  0  0
   10.8386    0.7991   23.5451 N   0  0  0  0  0  0  0  0  0  0  0  0
   12.1034    0.1689   24.0481 C   0  0  0  0  0  0  0  0  0  0  0  0
   12.0390   -1.0533   24.9155 C   0  0  0  0  0  0  0  0  0  0  0  0
   13.3038   -1.6835   25.4185 C   0  0  0  0  0  0  0  0  0  0  0  0
   13.2394   -2.9056   26.2858 C   0  0  0  0  0  0  0  0  0  0  0  0
   11.9101   -3.4975   26.6501 C   0  0  0  0  0  0  0  0  0  0  0  0
   10.6453   -2.8673   26.1470 C   0  0  0  0  0  0  0  0  0  0  0  0
   10.7098   -1.6452   25.2797 C   0  0  0  0  0  0  0  0  0  0  0  0
    6.3522   -0.8082   23.4082 O   0  0  0  0  0  0  0  0  0  0  0  0
    7.1143   -1.9187   24.0686 C   0  0  0  0  0  0  0  0  0  0  0  0
    6.8749   -3.3410   23.6566 N   0  0  0  0  0  0  0  0  0  0  0  0
    5.8537   -3.5426   22.5765 C   0  0  0  0  0  0  0  0  0  0  0  0
    5.3939   -4.8267   21.9523 C   0  0  0  0  0  0  0  0  0  0  0  0
    5.8414   -6.2262   22.2539 C   0  0  0  0  0  0  0  0  0  0  0  0
    6.8596   -6.6874   23.2543 C   0  0  0  0  0  0  0  0  0  0  0  0
    7.6815   -5.8628   24.2002 C   0  0  0  0  0  0  0  0  0  0  0  0
    7.6883   -4.3735   24.3792 C   0  0  0  0  0  0  0  0  0  0  0  0
 12 13  2  0  0  0
 13  1  1  0  0  0
  1  2  1  0  0  0
  2  3  2  0  0  0
  3  4  1  0  0  0
  4  5  2  0  0  0
  5  6  1  0  0  0
  6  7  2  0  0  0
  7  8  1  0  0  0
  8  9  2  0  0  0
  9 10  1  0  0  0
 10 11  2  0  0  0
 13 14  1  0  0  0
 14 15  1  0  0  0
 15 16  1  0  0  0
 16 17  2  0  0  0
 17 18  1  0  0  0
 18 19  2  0  0  0
 19 20  1  0  0  0
 11  2  1  0  0  0
 20 14  1  0  0  0
 11  6  1  0  0  0
M  END
> <minimizedAffinity>
-6.99741

> <CNNscore>
0.6036385298

> <CNNaffinity>
5.2844209671

> <CNN_VS>
3.1898801327

> <CNNaffinity_variance>
0.1952175796

$$$$



 20 22  0  0  0  0  0  0  0  0999 V2000
   11.6990   -1.1644   22.9038 C   0  0  0  0  0  0  0  0  0  0  0  0
   11.9846   -1.9103   24.1735 C   0  0  0  0  0  0  0  0  0  0  0  0
   13.4022   -2.1275   24.6131 C   0  0  0  0  0  0  0  0  0  0  0  0
   13.6877   -2.8734   25.8827 N   0  0  0  0  0  0  0  0  0  0  0  0
   12.5558   -3.4020   26.7129 C   0  0  0  0  0  0  0  0  0  0  0  0
   11.1381   -3.1848   26.2733 C   0  0  0  0  0  0  0  0  0  0  0  0
   10.0061   -3.7134   27.1034 C   0  0  0  0  0  0  0  0  0  0  0  0
    8.5886   -3.4961   26.6639 C   0  0  0  0  0  0  0  0  0  0  0  0
    8.3030   -2.7502   25.3942 C   0  0  0  0  0  0  0  0  0  0  0  0
    9.4350   -2.2216   24.5641 C   0  0  0  0  0  0  0  0  0  0  0  0
   10.8525   -2.4389   25.0036 C   0  0  0  0  0  0  0  0  0  0  0  0
   13.5922    0.5633   22.4784 O   0  0  0  0  0  0  0  0  0  0  0  0
   12.1493    0.2584   22.7523 C   0  0  0  0  0  0  0  0  0  0  0  0
   11.1566    1.3763   22.8747 N   0  0  0  0  0  0  0  0  0  0  0  0
   11.7108    2.7600   22.7065 C   0  0  0  0  0  0  0  0  0  0  0  0
   10.9862    4.0718   22.7711 C   0  0  0  0  0  0  0  0  0  0  0  0
    9.5286    4.3239   23.0199 C   0  0  0  0  0  0  0  0  0  0  0  0
    8.4356    3.3265   23.2655 C   0  0  0  0  0  0  0  0  0  0  0  0
    8.5302    1.8306   23.3230 C   0  0  0  0  0  0  0  0  0  0  0  0
    9.7412    0.9626   23.1490 C   0  0  0  0  0  0  0  0  0  0  0  0
 12 13  2  0  0  0
 13  1  1  0  0  0
  1  2  1  0  0  0
  2  3  2  0  0  0
  3  4  1  0  0  0
  4  5  2  0  0  0
  5  6  1  0  0  0
  6  7  2  0  0  0
  7  8  1  0  0  0
  8  9  2  0  0  0
  9 10  1  0  0  0
 10 11  2  0  0  0
 13 14  1  0  0  0
 14 15  1  0  0  0
 15 16  1  0  0  0
 16 17  2  0  0  0
 17 18  1  0  0  0
 18 19  2  0  0  0
 19 20  1  0  0  0
 11  2  1  0  0  0
 20 14  1  0  0  0
 11  6  1  0  0  0
M  END
> <minimizedAffinity>
-6.77939

> <CNNscore>
0.6005025506

> <CNNaffinity>
5.2911529541

> <CNN_VS>
3.1773507595

> <CNNaffinity_variance>
0.2198645771

$$$$



 20 22  0  0  0  0  0  0  0  0999 V2000
    8.4722   -3.5980   24.3459 C   0  0  0  0  0  0  0  0  0  0  0  0
    9.8307   -3.4383   24.9614 C   0  0  0  0  0  0  0  0  0  0  0  0
   10.2462   -4.3204   26.1011 C   0  0  0  0  0  0  0  0  0  0  0  0
   11.6048   -4.1607   26.7166 N   0  0  0  0  0  0  0  0  0  0  0  0
   12.5479   -3.1188   26.1922 C   0  0  0  0  0  0  0  0  0  0  0  0
   12.1325   -2.2366   25.0524 C   0  0  0  0  0  0  0  0  0  0  0  0
   13.0756   -1.1947   24.5281 C   0  0  0  0  0  0  0  0  0  0  0  0
   12.6601   -0.3126   23.3883 C   0  0  0  0  0  0  0  0  0  0  0  0
   11.3015   -0.4723   22.7728 C   0  0  0  0  0  0  0  0  0  0  0  0
   10.3584   -1.5142   23.2972 C   0  0  0  0  0  0  0  0  0  0  0  0
   10.7739   -2.3963   24.4370 C   0  0  0  0  0  0  0  0  0  0  0  0
    7.2433   -3.1314   26.5870 O   0  0  0  0  0  0  0  0  0  0  0  0
    7.2653   -3.7548   25.2227 C   0  0  0  0  0  0  0  0  0  0  0  0
    6.0805   -4.5349   24.7355 N   0  0  0  0  0  0  0  0  0  0  0  0
    4.9271   -4.6307   25.6898 C   0  0  0  0  0  0  0  0  0  0  0  0
    3.6141   -5.3314   25.5026 C   0  0  0  0  0  0  0  0  0  0  0  0
    3.1301   -6.1093   24.3149 C   0  0  0  0  0  0  0  0  0  0  0  0
    3.8396   -6.3787   23.0210 C   0  0  0  0  0  0  0  0  0  0  0  0
    5.2083   -5.9367   22.5954 C   0  0  0  0  0  0  0  0  0  0  0  0
    6.2056   -5.1161   23.3584 C   0  0  0  0  0  0  0  0  0  0  0  0
 12 13  2  0  0  0
 13  1  1  0  0  0
  1  2  1  0  0  0
  2  3  2  0  0  0
  3  4  1  0  0  0
  4  5  2  0  0  0
  5  6  1  0  0  0
  6  7  2  0  0  0
  7  8  1  0  0  0
  8  9  2  0  0  0
  9 10  1  0  0  0
 10 11  2  0  0  0
 13 14  1  0  0  0
 14 15  1  0  0  0
 15 16  1  0  0  0
 16 17  2  0  0  0
 17 18  1  0  0  0
 18 19  2  0  0  0
 19 20  1  0  0  0
 11  2  1  0  0  0
 20 14  1  0  0  0
 11  6  1  0  0  0
M  END
> <minimizedAffinity>
-6.44502

> <CNNscore>
0.5988005400

> <CNNaffinity>
5.2646527290

> <CNN_VS>
3.1524767876

> <CNNaffinity_variance>
0.0679773539

$$$$



 20 22  0  0  0  0  0  0  0  0999 V2000
    8.9259   -2.7289   23.1505 C   0  0  0  0  0  0  0  0  0  0  0  0
   10.1821   -1.9232   23.3013 C   0  0  0  0  0  0  0  0  0  0  0  0
   10.4624   -0.7881   22.3618 C   0  0  0  0  0  0  0  0  0  0  0  0
   11.7186    0.0176   22.5126 N   0  0  0  0  0  0  0  0  0  0  0  0
   12.6945   -0.3118   23.6030 C   0  0  0  0  0  0  0  0  0  0  0  0
   12.4142   -1.4470   24.5426 C   0  0  0  0  0  0  0  0  0  0  0  0
   13.3902   -1.7765   25.6330 C   0  0  0  0  0  0  0  0  0  0  0  0
   13.1099   -2.9116   26.5726 C   0  0  0  0  0  0  0  0  0  0  0  0
   11.8536   -3.7173   26.4217 C   0  0  0  0  0  0  0  0  0  0  0  0
   10.8777   -3.3879   25.3314 C   0  0  0  0  0  0  0  0  0  0  0  0
   11.1580   -2.2527   24.3918 C   0  0  0  0  0  0  0  0  0  0  0  0
    7.5490   -1.2535   24.7868 O   0  0  0  0  0  0  0  0  0  0  0  0
    7.8181   -2.5855   24.1516 C   0  0  0  0  0  0  0  0  0  0  0  0
    6.9795   -3.7741   24.5176 N   0  0  0  0  0  0  0  0  0  0  0  0
    5.8994   -3.5222   25.5276 C   0  0  0  0  0  0  0  0  0  0  0  0
    4.9049   -4.4915   26.0946 C   0  0  0  0  0  0  0  0  0  0  0  0
    4.7447   -5.9519   25.7918 C   0  0  0  0  0  0  0  0  0  0  0  0
    5.5397   -6.8037   24.8471 C   0  0  0  0  0  0  0  0  0  0  0  0
    6.6910   -6.4055   23.9719 C   0  0  0  0  0  0  0  0  0  0  0  0
    7.3317   -5.0572   23.8253 C   0  0  0  0  0  0  0  0  0  0  0  0
 12 13  2  0  0  0
 13  1  1  0  0  0
  1  2  1  0  0  0
  2  3  2  0  0  0
  3  4  1  0  0  0
  4  5  2  0  0  0
  5  6  1  0  0  0
  6  7  2  0  0  0
  7  8  1  0  0  0
  8  9  2  0  0  0
  9 10  1  0  0  0
 10 11  2  0  0  0
 13 14  1  0  0  0
 14 15  1  0  0  0
 15 16  1  0  0  0
 16 17  2  0  0  0
 17 18  1  0  0  0
 18 19  2  0  0  0
 19 20  1  0  0  0
 11  2  1  0  0  0
 20 14  1  0  0  0
 11  6  1  0  0  0
M  END
> <minimizedAffinity>
-6.70786

> <CNNscore>
0.5794119835

> <CNNaffinity>
5.3048529625

> <CNN_VS>
3.0736954212

> <CNNaffinity_variance>
0.0678560734

$$$$
