


 20 22  0  0  0  0  0  0  0  0999 V2000
   -6.5207   -1.9035  -21.7304 C   0  0  0  0  0  0  0  0  0  0  0  0
   -6.0403   -1.1211  -20.5441 C   0  0  0  0  0  0  0  0  0  0  0  0
   -6.7335   -1.2629  -19.2215 C   0  0  0  0  0  0  0  0  0  0  0  0
   -6.2532   -0.4805  -18.0353 N   0  0  0  0  0  0  0  0  0  0  0  0
   -5.0796    0.4437  -18.1717 C   0  0  0  0  0  0  0  0  0  0  0  0
   -4.3864    0.5855  -19.4944 C   0  0  0  0  0  0  0  0  0  0  0  0
   -3.2129    1.5098  -19.6308 C   0  0  0  0  0  0  0  0  0  0  0  0
   -2.5197    1.6516  -20.9534 C   0  0  0  0  0  0  0  0  0  0  0  0
   -3.0001    0.8692  -22.1396 C   0  0  0  0  0  0  0  0  0  0  0  0
   -4.1736   -0.0550  -22.0032 C   0  0  0  0  0  0  0  0  0  0  0  0
   -4.8668   -0.1969  -20.6806 C   0  0  0  0  0  0  0  0  0  0  0  0
   -5.2718   -4.0180  -20.8823 O   0  0  0  0  0  0  0  0  0  0  0  0
   -6.2615   -3.3787  -21.8107 C   0  0  0  0  0  0  0  0  0  0  0  0
   -6.9920   -4.2147  -22.8194 N   0  0  0  0  0  0  0  0  0  0  0  0
   -6.6593   -5.6774  -22.8159 C   0  0  0  0  0  0  0  0  0  0  0  0
   -7.2110   -6.7640  -23.6904 C   0  0  0  0  0  0  0  0  0  0  0  0
   -8.2317   -6.6565  -24.7844 C   0  0  0  0  0  0  0  0  0  0  0  0
   -8.9527   -5.4357  -25.2740 C   0  0  0  0  0  0  0  0  0  0  0  0
   -8.8311   -4.0209  -24.7906 C   0  0  0  0  0  0  0  0  0  0  0  0
   -7.9585   -3.4776  -23.6982 C   0  0  0  0  0  0  0  0  0  0  0  0
 12 13  2  0  0  0
 13  1  1  0  0  0
  1  2  1  0  0  0
  2  3  2  0  0  0
  3  4  1  0  0  0
  4  5  2  0  0  0
  5  6  1  0  0  0
  6  7  2  0  0  0
  7  8  1  0  0  0
  8  9  2  0  0  0
  9 10  1  0  0  0
 10 11  2  0  0  0
 13 14  1  0  0  0
 14 15  1  0  0  0
 15 16  1  0  0  0
 16 17  2  0  0  0
 17 18  1  0  0  0
 18 19  2  0  0  0
 19 20  1  0  0  0
 11  2  1  0  0  0
 20 14  1  0  0  0
 11  6  1  0  0  0
M  END
> <minimizedAffinity>
-6.97399

> <CNNscore>
0.6839368939

> <CNNaffinity>
5.0095243454

> <CNN_VS>
3.4261984825

> <CNNaffinity_variance>
0.2701311707

$$$$



 20 22  0  0  0  0  0  0  0  0999 V2000
   -6.5178   -2.2289  -21.5648 C   0  0  0  0  0  0  0  0  0  0  0  0
   -5.9940   -1.3706  -20.4517 C   0  0  0  0  0  0  0  0  0  0  0  0
   -6.5627   -1.5043  -19.0702 C   0  0  0  0  0  0  0  0  0  0  0  0
   -6.0389   -0.6460  -17.9572 N   0  0  0  0  0  0  0  0  0  0  0  0
   -4.9464    0.3461  -18.2257 C   0  0  0  0  0  0  0  0  0  0  0  0
   -4.3776    0.4799  -19.6072 C   0  0  0  0  0  0  0  0  0  0  0  0
   -3.2851    1.4720  -19.8757 C   0  0  0  0  0  0  0  0  0  0  0  0
   -2.7164    1.6058  -21.2573 C   0  0  0  0  0  0  0  0  0  0  0  0
   -3.2403    0.7474  -22.3703 C   0  0  0  0  0  0  0  0  0  0  0  0
   -4.3328   -0.2447  -22.1018 C   0  0  0  0  0  0  0  0  0  0  0  0
   -4.9014   -0.3784  -20.7203 C   0  0  0  0  0  0  0  0  0  0  0  0
   -8.7025   -0.8241  -21.6269 O   0  0  0  0  0  0  0  0  0  0  0  0
   -7.8955   -1.9931  -22.1090 C   0  0  0  0  0  0  0  0  0  0  0  0
   -8.4664   -2.9263  -23.1353 N   0  0  0  0  0  0  0  0  0  0  0  0
   -9.8505   -2.6003  -23.6130 C   0  0  0  0  0  0  0  0  0  0  0  0
  -10.6876   -3.3296  -24.6216 C   0  0  0  0  0  0  0  0  0  0  0  0
  -10.3476   -4.5649  -25.4017 C   0  0  0  0  0  0  0  0  0  0  0  0
   -9.0863   -5.3760  -25.3658 C   0  0  0  0  0  0  0  0  0  0  0  0
   -7.8536   -5.1521  -24.5410 C   0  0  0  0  0  0  0  0  0  0  0  0
   -7.5777   -4.0618  -23.5483 C   0  0  0  0  0  0  0  0  0  0  0  0
 12 13  2  0  0  0
 13  1  1  0  0  0
  1  2  1  0  0  0
  2  3  2  0  0  0
  3  4  1  0  0  0
  4  5  2  0  0  0
  5  6  1  0  0  0
  6  7  2  0  0  0
  7  8  1  0  0  0
  8  9  2  0  0  0
  9 10  1  0  0  0
 10 11  2  0  0  0
 13 14  1  0  0  0
 14 15  1  0  0  0
 15 16  1  0  0  0
 16 17  2  0  0  0
 17 18  1  0  0  0
 18 19  2  0  0  0
 19 20  1  0  0  0
 11  2  1  0  0  0
 20 14  1  0  0  0
 11  6  1  0  0  0
M  END
> <minimizedAffinity>
-6.71881

> <CNNscore>
0.6361320615

> <CNNaffinity>
4.8848533630

> <CNN_VS>
3.1074118614

> <CNNaffinity_variance>
0.2601416111

$$$$



 20 22  0  0  0  0  0  0  0  0999 V2000
   -7.5035   -1.0104  -21.4562 C   0  0  0  0  0  0  0  0  0  0  0  0
   -8.4653   -0.1378  -22.2069 C   0  0  0  0  0  0  0  0  0  0  0  0
   -8.0929    1.2770  -22.5381 C   0  0  0  0  0  0  0  0  0  0  0  0
   -9.0547    2.1496  -23.2887 N   0  0  0  0  0  0  0  0  0  0  0  0
  -10.3888    1.6074  -23.7082 C   0  0  0  0  0  0  0  0  0  0  0  0
  -10.7613    0.1926  -23.3771 C   0  0  0  0  0  0  0  0  0  0  0  0
  -12.0954   -0.3496  -23.7965 C   0  0  0  0  0  0  0  0  0  0  0  0
  -12.4678   -1.7643  -23.4654 C   0  0  0  0  0  0  0  0  0  0  0  0
  -11.5060   -2.6369  -22.7147 C   0  0  0  0  0  0  0  0  0  0  0  0
  -10.1718   -2.0948  -22.2952 C   0  0  0  0  0  0  0  0  0  0  0  0
   -9.7995   -0.6800  -22.6264 C   0  0  0  0  0  0  0  0  0  0  0  0
   -7.1676   -0.4349  -18.9450 O   0  0  0  0  0  0  0  0  0  0  0  0
   -6.6635   -0.4290  -20.3579 C   0  0  0  0  0  0  0  0  0  0  0  0
   -5.3196    0.1583  -20.6722 N   0  0  0  0  0  0  0  0  0  0  0  0
   -4.5617    0.7125  -19.5023 C   0  0  0  0  0  0  0  0  0  0  0  0
   -3.2083    1.3590  -19.4863 C   0  0  0  0  0  0  0  0  0  0  0  0
   -2.2784    1.6111  -20.6360 C   0  0  0  0  0  0  0  0  0  0  0  0
   -2.4724    1.2788  -22.0858 C   0  0  0  0  0  0  0  0  0  0  0  0
   -3.6441    0.6125  -22.7439 C   0  0  0  0  0  0  0  0  0  0  0  0
   -4.9112    0.1138  -22.1148 C   0  0  0  0  0  0  0  0  0  0  0  0
 12 13  2  0  0  0
 13  1  1  0  0  0
  1  2  1  0  0  0
  2  3  2  0  0  0
  3  4  1  0  0  0
  4  5  2  0  0  0
  5  6  1  0  0  0
  6  7  2  0  0  0
  7  8  1  0  0  0
  8  9  2  0  0  0
  9 10  1  0  0  0
 10 11  2  0  0  0
 13 14  1  0  0  0
 14 15  1  0  0  0
 15 16  1  0  0  0
 16 17  2  0  0  0
 17 18  1  0  0  0
 18 19  2  0  0  0
 19 20  1  0  0  0
 11  2  1  0  0  0
 20 14  1  0  0  0
 11  6  1  0  0  0
M  END
> <minimizedAffinity>
-6.00709

> <CNNscore>
0.5337173939

> <CNNaffinity>
4.7481999397

> <CNN_VS>
2.5341968536

> <CNNaffinity_variance>
0.1137811318

$$$$



 20 22  0  0  0  0  0  0  0  0999 V2000
   -7.2831   -0.4657  -22.0349 C   0  0  0  0  0  0  0  0  0  0  0  0
   -6.5236   -0.2545  -20.7588 C   0  0  0  0  0  0  0  0  0  0  0  0
   -7.0485   -0.8177  -19.4716 C   0  0  0  0  0  0  0  0  0  0  0  0
   -6.2890   -0.6065  -18.1954 N   0  0  0  0  0  0  0  0  0  0  0  0
   -5.0045    0.1680  -18.2066 C   0  0  0  0  0  0  0  0  0  0  0  0
   -4.4795    0.7313  -19.4939 C   0  0  0  0  0  0  0  0  0  0  0  0
   -3.1950    1.5058  -19.5051 C   0  0  0  0  0  0  0  0  0  0  0  0
   -2.6700    2.0691  -20.7924 C   0  0  0  0  0  0  0  0  0  0  0  0
   -3.4296    1.8578  -22.0685 C   0  0  0  0  0  0  0  0  0  0  0  0
   -4.7141    1.0833  -22.0573 C   0  0  0  0  0  0  0  0  0  0  0  0
   -5.2390    0.5201  -20.7700 C   0  0  0  0  0  0  0  0  0  0  0  0
   -8.0880    1.9459  -22.5702 O   0  0  0  0  0  0  0  0  0  0  0  0
   -8.3798    0.4821  -22.4207 C   0  0  0  0  0  0  0  0  0  0  0  0
   -9.7684   -0.0337  -22.6568 N   0  0  0  0  0  0  0  0  0  0  0  0
  -10.7895    0.9970  -23.0377 C   0  0  0  0  0  0  0  0  0  0  0  0
  -12.2467    0.8038  -23.3367 C   0  0  0  0  0  0  0  0  0  0  0  0
  -13.0427   -0.4676  -23.3286 C   0  0  0  0  0  0  0  0  0  0  0  0
  -12.5780   -1.8599  -23.0196 C   0  0  0  0  0  0  0  0  0  0  0  0
  -11.2026   -2.3247  -22.6422 C   0  0  0  0  0  0  0  0  0  0  0  0
   -9.9522   -1.5119  -22.4808 C   0  0  0  0  0  0  0  0  0  0  0  0
 12 13  2  0  0  0
 13  1  1  0  0  0
  1  2  1  0  0  0
  2  3  2  0  0  0
  3  4  1  0  0  0
  4  5  2  0  0  0
  5  6  1  0  0  0
  6  7  2  0  0  0
  7  8  1  0  0  0
  8  9  2  0  0  0
  9 10  1  0  0  0
 10 11  2  0  0  0
 13 14  1  0  0  0
 14 15  1  0  0  0
 15 16  1  0  0  0
 16 17  2  0  0  0
 17 18  1  0  0  0
 18 19  2  0  0  0
 19 20  1  0  0  0
 11  2  1  0  0  0
 20 14  1  0  0  0
 11  6  1  0  0  0
M  END
> <minimizedAffinity>
-6.77269

> <CNNscore>
0.4896536767

> <CNNaffinity>
4.8248147964

> <CNN_VS>
2.3624882698

> <CNNaffinity_variance>
0.2206828147

$$$$



 20 22  0  0  0  0  0  0  0  0999 V2000
   -6.1837   -1.9445  -21.4962 C   0  0  0  0  0  0  0  0  0  0  0  0
   -5.2030   -1.0686  -22.2181 C   0  0  0  0  0  0  0  0  0  0  0  0
   -5.0203   -1.2103  -23.7002 C   0  0  0  0  0  0  0  0  0  0  0  0
   -4.0397   -0.3345  -24.4221 N   0  0  0  0  0  0  0  0  0  0  0  0
   -3.2417    0.6830  -23.6620 C   0  0  0  0  0  0  0  0  0  0  0  0
   -3.4243    0.8247  -22.1799 C   0  0  0  0  0  0  0  0  0  0  0  0
   -2.6263    1.8422  -21.4197 C   0  0  0  0  0  0  0  0  0  0  0  0
   -2.8089    1.9839  -19.9377 C   0  0  0  0  0  0  0  0  0  0  0  0
   -3.7896    1.1081  -19.2158 C   0  0  0  0  0  0  0  0  0  0  0  0
   -4.5876    0.0906  -19.9759 C   0  0  0  0  0  0  0  0  0  0  0  0
   -4.4050   -0.0511  -21.4579 C   0  0  0  0  0  0  0  0  0  0  0  0
   -4.9967   -3.5243  -19.8093 O   0  0  0  0  0  0  0  0  0  0  0  0
   -5.7838   -3.3262  -21.0709 C   0  0  0  0  0  0  0  0  0  0  0  0
   -6.1708   -4.5098  -21.9070 N   0  0  0  0  0  0  0  0  0  0  0  0
   -5.7213   -5.8452  -21.3923 C   0  0  0  0  0  0  0  0  0  0  0  0
   -5.9462   -7.2020  -21.9908 C   0  0  0  0  0  0  0  0  0  0  0  0
   -6.6762   -7.5589  -23.2517 C   0  0  0  0  0  0  0  0  0  0  0  0
   -7.3614   -6.6468  -24.2257 C   0  0  0  0  0  0  0  0  0  0  0  0
   -7.4861   -5.1527  -24.1791 C   0  0  0  0  0  0  0  0  0  0  0  0
   -6.9562   -4.2017  -23.1472 C   0  0  0  0  0  0  0  0  0  0  0  0
 12 13  2  0  0  0
 13  1  1  0  0  0
  1  2  1  0  0  0
  2  3  2  0  0  0
  3  4  1  0  0  0
  4  5  2  0  0  0
  5  6  1  0  0  0
  6  7  2  0  0  0
  7  8  1  0  0  0
  8  9  2  0  0  0
  9 10  1  0  0  0
 10 11  2  0  0  0
 13 14  1  0  0  0
 14 15  1  0  0  0
 15 16  1  0  0  0
 16 17  2  0  0  0
 17 18  1  0  0  0
 18 19  2  0  0  0
 19 20  1  0  0  0
 11  2  1  0  0  0
 20 14  1  0  0  0
 11  6  1  0  0  0
M  END
> <minimizedAffinity>
-5.93461

> <CNNscore>
0.4813427627

> <CNNaffinity>
4.5178337097

> <CNN_VS>
2.1746265888

> <CNNaffinity_variance>
0.1312037408

$$$$



 20 22  0  0  0  0  0  0  0  0999 V2000
   -6.7748   -0.4568  -22.3294 C   0  0  0  0  0  0  0  0  0  0  0  0
   -6.1490   -0.2107  -20.9886 C   0  0  0  0  0  0  0  0  0  0  0  0
   -6.7811   -0.7751  -19.7510 C   0  0  0  0  0  0  0  0  0  0  0  0
   -6.1552   -0.5291  -18.4102 N   0  0  0  0  0  0  0  0  0  0  0  0
   -4.8973    0.2814  -18.3070 C   0  0  0  0  0  0  0  0  0  0  0  0
   -4.2652    0.8459  -19.5447 C   0  0  0  0  0  0  0  0  0  0  0  0
   -3.0073    1.6565  -19.4416 C   0  0  0  0  0  0  0  0  0  0  0  0
   -2.3752    2.2209  -20.6792 C   0  0  0  0  0  0  0  0  0  0  0  0
   -3.0011    1.9748  -22.0200 C   0  0  0  0  0  0  0  0  0  0  0  0
   -4.2590    1.1643  -22.1232 C   0  0  0  0  0  0  0  0  0  0  0  0
   -4.8910    0.5999  -20.8855 C   0  0  0  0  0  0  0  0  0  0  0  0
   -9.1711    0.3867  -21.7849 O   0  0  0  0  0  0  0  0  0  0  0  0
   -8.2627   -0.6069  -22.4465 C   0  0  0  0  0  0  0  0  0  0  0  0
   -8.8422   -1.7505  -23.2251 N   0  0  0  0  0  0  0  0  0  0  0  0
  -10.3401   -1.8080  -23.2796 C   0  0  0  0  0  0  0  0  0  0  0  0
  -11.2129   -2.8146  -23.9688 C   0  0  0  0  0  0  0  0  0  0  0  0
  -10.8034   -4.0124  -24.7735 C   0  0  0  0  0  0  0  0  0  0  0  0
   -9.4199   -4.4994  -25.0879 C   0  0  0  0  0  0  0  0  0  0  0  0
   -8.1043   -3.9088  -24.6752 C   0  0  0  0  0  0  0  0  0  0  0  0
   -7.8472   -2.6855  -23.8461 C   0  0  0  0  0  0  0  0  0  0  0  0
 12 13  2  0  0  0
 13  1  1  0  0  0
  1  2  1  0  0  0
  2  3  2  0  0  0
  3  4  1  0  0  0
  4  5  2  0  0  0
  5  6  1  0  0  0
  6  7  2  0  0  0
  7  8  1  0  0  0
  8  9  2  0  0  0
  9 10  1  0  0  0
 10 11  2  0  0  0
 13 14  1  0  0  0
 14 15  1  0  0  0
 15 16  1  0  0  0
 16 17  2  0  0  0
 17 18  1  0  0  0
 18 19  2  0  0  0
 19 20  1  0  0  0
 11  2  1  0  0  0
 20 14  1  0  0  0
 11  6  1  0  0  0
M  END
> <minimizedAffinity>
-6.21637

> <CNNscore>
0.4219438434

> <CNNaffinity>
4.6857585907

> <CNN_VS>
1.9771269560

> <CNNaffinity_variance>
0.1014058217

$$$$



 20 22  0  0  0  0  0  0  0  0999 V2000
   -7.5944    0.0442  -22.0359 C   0  0  0  0  0  0  0  0  0  0  0  0
   -6.7443   -0.0219  -20.8018 C   0  0  0  0  0  0  0  0  0  0  0  0
   -7.1675   -0.8771  -19.6445 C   0  0  0  0  0  0  0  0  0  0  0  0
   -6.3174   -0.9433  -18.4104 N   0  0  0  0  0  0  0  0  0  0  0  0
   -5.0441   -0.1542  -18.3336 C   0  0  0  0  0  0  0  0  0  0  0  0
   -4.6208    0.7011  -19.4910 C   0  0  0  0  0  0  0  0  0  0  0  0
   -3.3474    1.4901  -19.4142 C   0  0  0  0  0  0  0  0  0  0  0  0
   -2.9242    2.3453  -20.5716 C   0  0  0  0  0  0  0  0  0  0  0  0
   -3.7743    2.4115  -21.8056 C   0  0  0  0  0  0  0  0  0  0  0  0
   -5.0476    1.6224  -21.8824 C   0  0  0  0  0  0  0  0  0  0  0  0
   -5.4709    0.7672  -20.7251 C   0  0  0  0  0  0  0  0  0  0  0  0
   -8.3738   -2.4336  -22.0928 O   0  0  0  0  0  0  0  0  0  0  0  0
   -8.6738   -0.9732  -22.2584 C   0  0  0  0  0  0  0  0  0  0  0  0
  -10.0534   -0.5303  -22.6466 N   0  0  0  0  0  0  0  0  0  0  0  0
  -11.0574   -1.6271  -22.8446 C   0  0  0  0  0  0  0  0  0  0  0  0
  -12.5025   -1.5136  -23.2303 C   0  0  0  0  0  0  0  0  0  0  0  0
  -13.3005   -0.2754  -23.5133 C   0  0  0  0  0  0  0  0  0  0  0  0
  -12.8506    1.1551  -23.4805 C   0  0  0  0  0  0  0  0  0  0  0  0
  -11.4914    1.7007  -23.1565 C   0  0  0  0  0  0  0  0  0  0  0  0
  -10.2465    0.9506  -22.7854 C   0  0  0  0  0  0  0  0  0  0  0  0
 12 13  2  0  0  0
 13  1  1  0  0  0
  1  2  1  0  0  0
  2  3  2  0  0  0
  3  4  1  0  0  0
  4  5  2  0  0  0
  5  6  1  0  0  0
  6  7  2  0  0  0
  7  8  1  0  0  0
  8  9  2  0  0  0
  9 10  1  0  0  0
 10 11  2  0  0  0
 13 14  1  0  0  0
 14 15  1  0  0  0
 15 16  1  0  0  0
 16 17  2  0  0  0
 17 18  1  0  0  0
 18 19  2  0  0  0
 19 20  1  0  0  0
 11  2  1  0  0  0
 20 14  1  0  0  0
 11  6  1  0  0  0
M  END
> <minimizedAffinity>
-7.02781

> <CNNscore>
0.4060530663

> <CNNaffinity>
4.7139978409

> <CNN_VS>
1.9141333103

> <CNNaffinity_variance>
0.3611513674

$$$$



 20 22  0  0  0  0  0  0  0  0999 V2000
   -7.6398    0.1583  -21.8627 C   0  0  0  0  0  0  0  0  0  0  0  0
   -6.7263    0.0288  -20.6800 C   0  0  0  0  0  0  0  0  0  0  0  0
   -7.0766   -0.9061  -19.5606 C   0  0  0  0  0  0  0  0  0  0  0  0
   -6.1631   -1.0356  -18.3779 N   0  0  0  0  0  0  0  0  0  0  0  0
   -4.8994   -0.2300  -18.3145 C   0  0  0  0  0  0  0  0  0  0  0  0
   -4.5491    0.7050  -19.4340 C   0  0  0  0  0  0  0  0  0  0  0  0
   -3.2854    1.5106  -19.3706 C   0  0  0  0  0  0  0  0  0  0  0  0
   -2.9351    2.4455  -20.4900 C   0  0  0  0  0  0  0  0  0  0  0  0
   -3.8486    2.5750  -21.6727 C   0  0  0  0  0  0  0  0  0  0  0  0
   -5.1123    1.7694  -21.7361 C   0  0  0  0  0  0  0  0  0  0  0  0
   -5.4626    0.8345  -20.6167 C   0  0  0  0  0  0  0  0  0  0  0  0
   -6.1900   -0.7703  -23.8084 O   0  0  0  0  0  0  0  0  0  0  0  0
   -7.4778   -0.7579  -23.0393 C   0  0  0  0  0  0  0  0  0  0  0  0
   -8.6035   -1.6615  -23.4468 N   0  0  0  0  0  0  0  0  0  0  0  0
   -8.3378   -2.5367  -24.6358 C   0  0  0  0  0  0  0  0  0  0  0  0
   -9.2491   -3.5370  -25.2830 C   0  0  0  0  0  0  0  0  0  0  0  0
  -10.6511   -3.9093  -24.9012 C   0  0  0  0  0  0  0  0  0  0  0  0
  -11.4881   -3.3732  -23.7779 C   0  0  0  0  0  0  0  0  0  0  0  0
  -11.1298   -2.3324  -22.7589 C   0  0  0  0  0  0  0  0  0  0  0  0
   -9.8460   -1.5706  -22.6115 C   0  0  0  0  0  0  0  0  0  0  0  0
 12 13  2  0  0  0
 13  1  1  0  0  0
  1  2  1  0  0  0
  2  3  2  0  0  0
  3  4  1  0  0  0
  4  5  2  0  0  0
  5  6  1  0  0  0
  6  7  2  0  0  0
  7  8  1  0  0  0
  8  9  2  0  0  0
  9 10  1  0  0  0
 10 11  2  0  0  0
 13 14  1  0  0  0
 14 15  1  0  0  0
 15 16  1  0  0  0
 16 17  2  0  0  0
 17 18  1  0  0  0
 18 19  2  0  0  0
 19 20  1  0  0  0
 11  2  1  0  0  0
 20 14  1  0  0  0
 11  6  1  0  0  0
M  END
> <minimizedAffinity>
-6.33782

> <CNNscore>
0.4043976068

> <CNNaffinity>
4.6731438637

> <CNN_VS>
1.8898081779

> <CNNaffinity_variance>
0.0696418583

$$$$



 20 22  0  0  0  0  0  0  0  0999 V2000
   -8.6591   -1.9498  -23.9883 C   0  0  0  0  0  0  0  0  0  0  0  0
  -10.0946   -1.7906  -23.5832 C   0  0  0  0  0  0  0  0  0  0  0  0
  -10.8825   -2.9835  -23.1292 C   0  0  0  0  0  0  0  0  0  0  0  0
  -12.3180   -2.8243  -22.7242 N   0  0  0  0  0  0  0  0  0  0  0  0
  -12.9655   -1.4722  -22.7731 C   0  0  0  0  0  0  0  0  0  0  0  0
  -12.1776   -0.2792  -23.2272 C   0  0  0  0  0  0  0  0  0  0  0  0
  -12.8252    1.0729  -23.2761 C   0  0  0  0  0  0  0  0  0  0  0  0
  -12.0373    2.2658  -23.7301 C   0  0  0  0  0  0  0  0  0  0  0  0
  -10.6018    2.1066  -24.1351 C   0  0  0  0  0  0  0  0  0  0  0  0
   -9.9542    0.7545  -24.0862 C   0  0  0  0  0  0  0  0  0  0  0  0
  -10.7421   -0.4384  -23.6322 C   0  0  0  0  0  0  0  0  0  0  0  0
   -7.0323   -1.4900  -22.0154 O   0  0  0  0  0  0  0  0  0  0  0  0
   -7.6498   -2.4438  -22.9947 C   0  0  0  0  0  0  0  0  0  0  0  0
   -7.2580   -3.8917  -22.9803 N   0  0  0  0  0  0  0  0  0  0  0  0
   -6.2418   -4.2807  -21.9478 C   0  0  0  0  0  0  0  0  0  0  0  0
   -5.6509   -5.6332  -21.6804 C   0  0  0  0  0  0  0  0  0  0  0  0
   -5.9301   -6.9307  -22.3793 C   0  0  0  0  0  0  0  0  0  0  0  0
   -6.8693   -7.1962  -23.5184 C   0  0  0  0  0  0  0  0  0  0  0  0
   -7.7612   -6.2297  -24.2397 C   0  0  0  0  0  0  0  0  0  0  0  0
   -7.9342   -4.7590  -24.0003 C   0  0  0  0  0  0  0  0  0  0  0  0
 12 13  2  0  0  0
 13  1  1  0  0  0
  1  2  1  0  0  0
  2  3  2  0  0  0
  3  4  1  0  0  0
  4  5  2  0  0  0
  5  6  1  0  0  0
  6  7  2  0  0  0
  7  8  1  0  0  0
  8  9  2  0  0  0
  9 10  1  0  0  0
 10 11  2  0  0  0
 13 14  1  0  0  0
 14 15  1  0  0  0
 15 16  1  0  0  0
 16 17  2  0  0  0
 17 18  1  0  0  0
 18 19  2  0  0  0
 19 20  1  0  0  0
 11  2  1  0  0  0
 20 14  1  0  0  0
 11  6  1  0  0  0
M  END
> <minimizedAffinity>
-5.98820

> <CNNscore>
0.3754132986

> <CNNaffinity>
4.8837471008

> <CNN_VS>
1.8334236145

> <CNNaffinity_variance>
0.2826987207

$$$$
