


 23 26  0  0  0  0  0  0  0  0999 V2000
   -6.3961   -5.7889  -22.6579 C   0  0  0  0  0  0  0  0  0  0  0  0
   -7.4074   -4.9876  -23.4228 C   0  0  0  0  0  0  0  0  0  0  0  0
   -8.2586   -5.6519  -24.4640 C   0  0  0  0  0  0  0  0  0  0  0  0
   -8.3255   -7.0690  -24.9512 C   0  0  0  0  0  0  0  0  0  0  0  0
   -9.3781   -7.1435  -26.0172 C   0  0  0  0  0  0  0  0  0  0  0  0
   -9.9619   -5.7725  -26.1888 S   0  0  0  0  0  0  0  0  0  0  0  0
   -9.2700   -4.8506  -25.2290 C   0  0  0  0  0  0  0  0  0  0  0  0
   -9.4301   -3.3850  -24.9526 C   0  0  0  0  0  0  0  0  0  0  0  0
   -8.5790   -2.7207  -23.9113 C   0  0  0  0  0  0  0  0  0  0  0  0
   -7.5677   -3.5220  -23.1464 N   0  0  0  0  0  0  0  0  0  0  0  0
   -6.7165   -2.8577  -22.1051 C   0  0  0  0  0  0  0  0  0  0  0  0
   -5.7051   -3.6591  -21.3402 O   0  0  0  0  0  0  0  0  0  0  0  0
   -6.8767   -1.3921  -21.8288 C   0  0  0  0  0  0  0  0  0  0  0  0
   -6.2711   -0.7910  -20.5951 C   0  0  0  0  0  0  0  0  0  0  0  0
   -6.9211   -1.0042  -19.2602 C   0  0  0  0  0  0  0  0  0  0  0  0
   -6.3155   -0.4031  -18.0266 N   0  0  0  0  0  0  0  0  0  0  0  0
   -5.0600    0.4114  -18.1278 C   0  0  0  0  0  0  0  0  0  0  0  0
   -4.4100    0.6247  -19.4628 C   0  0  0  0  0  0  0  0  0  0  0  0
   -3.1544    1.4391  -19.5640 C   0  0  0  0  0  0  0  0  0  0  0  0
   -2.5045    1.6524  -20.8990 C   0  0  0  0  0  0  0  0  0  0  0  0
   -3.1101    1.0512  -22.1326 C   0  0  0  0  0  0  0  0  0  0  0  0
   -4.3656    0.2368  -22.0313 C   0  0  0  0  0  0  0  0  0  0  0  0
   -5.0155    0.0235  -20.6964 C   0  0  0  0  0  0  0  0  0  0  0  0
  2  1  1  0  0  0
  2  3  1  0  0  0
  3  4  1  0  0  0
  4  5  2  0  0  0
  5  6  1  0  0  0
  6  7  1  0  0  0
  7  8  1  0  0  0
  8  9  1  0  0  0
  9 10  1  0  0  0
 10 11  1  0  0  0
 11 12  2  0  0  0
 11 13  1  0  0  0
 13 14  1  0  0  0
 14 15  2  0  0  0
 15 16  1  0  0  0
 16 17  2  0  0  0
 17 18  1  0  0  0
 18 19  2  0  0  0
 19 20  1  0  0  0
 20 21  2  0  0  0
 21 22  1  0  0  0
 22 23  2  0  0  0
 10  2  1  0  0  0
 23 14  1  0  0  0
  7  3  2  0  0  0
 23 18  1  0  0  0
M  END
> <minimizedAffinity>
-7.48303

> <CNNscore>
0.6824929714

> <CNNaffinity>
5.3812355995

> <CNN_VS>
3.6726555824

> <CNNaffinity_variance>
0.1731178463

$$$$



 23 26  0  0  0  0  0  0  0  0999 V2000
   -9.3410   -2.3311  -24.1440 C   0  0  0  0  0  0  0  0  0  0  0  0
   -8.6043   -3.6371  -24.1053 C   0  0  0  0  0  0  0  0  0  0  0  0
   -9.0486   -4.7750  -24.9758 C   0  0  0  0  0  0  0  0  0  0  0  0
  -10.1688   -4.9039  -25.9650 C   0  0  0  0  0  0  0  0  0  0  0  0
  -10.1244   -6.2896  -26.5376 C   0  0  0  0  0  0  0  0  0  0  0  0
   -8.9767   -7.0171  -25.9023 S   0  0  0  0  0  0  0  0  0  0  0  0
   -8.3118   -6.0811  -24.9370 C   0  0  0  0  0  0  0  0  0  0  0  0
   -7.1308   -6.2492  -24.0278 C   0  0  0  0  0  0  0  0  0  0  0  0
   -6.6864   -5.1113  -23.1573 C   0  0  0  0  0  0  0  0  0  0  0  0
   -7.4231   -3.8053  -23.1960 N   0  0  0  0  0  0  0  0  0  0  0  0
   -6.9788   -2.6674  -22.3255 C   0  0  0  0  0  0  0  0  0  0  0  0
   -7.7155   -1.3613  -22.3643 O   0  0  0  0  0  0  0  0  0  0  0  0
   -5.7977   -2.8355  -21.4163 C   0  0  0  0  0  0  0  0  0  0  0  0
   -5.5137   -1.8107  -20.3584 C   0  0  0  0  0  0  0  0  0  0  0  0
   -5.9948   -2.0289  -18.9545 C   0  0  0  0  0  0  0  0  0  0  0  0
   -5.7109   -1.0041  -17.8966 N   0  0  0  0  0  0  0  0  0  0  0  0
   -4.9458    0.2388  -18.2426 C   0  0  0  0  0  0  0  0  0  0  0  0
   -4.4646    0.4570  -19.6465 C   0  0  0  0  0  0  0  0  0  0  0  0
   -3.6995    1.6999  -19.9924 C   0  0  0  0  0  0  0  0  0  0  0  0
   -3.2184    1.9181  -21.3963 C   0  0  0  0  0  0  0  0  0  0  0  0
   -3.5023    0.8933  -22.4542 C   0  0  0  0  0  0  0  0  0  0  0  0
   -4.2674   -0.3496  -22.1083 C   0  0  0  0  0  0  0  0  0  0  0  0
   -4.7486   -0.5678  -20.7044 C   0  0  0  0  0  0  0  0  0  0  0  0
  2  1  1  0  0  0
  2  3  1  0  0  0
  3  4  1  0  0  0
  4  5  2  0  0  0
  5  6  1  0  0  0
  6  7  1  0  0  0
  7  8  1  0  0  0
  8  9  1  0  0  0
  9 10  1  0  0  0
 10 11  1  0  0  0
 11 12  2  0  0  0
 11 13  1  0  0  0
 13 14  1  0  0  0
 14 15  2  0  0  0
 15 16  1  0  0  0
 16 17  2  0  0  0
 17 18  1  0  0  0
 18 19  2  0  0  0
 19 20  1  0  0  0
 20 21  2  0  0  0
 21 22  1  0  0  0
 22 23  2  0  0  0
 10  2  1  0  0  0
 23 14  1  0  0  0
  7  3  2  0  0  0
 23 18  1  0  0  0
M  END
> <minimizedAffinity>
-7.60113

> <CNNscore>
0.6550315619

> <CNNaffinity>
5.2324147224

> <CNN_VS>
3.4273967743

> <CNNaffinity_variance>
0.3377228379

$$$$



 23 26  0  0  0  0  0  0  0  0999 V2000
  -10.8082   -2.8551  -23.1148 C   0  0  0  0  0  0  0  0  0  0  0  0
  -10.3465   -1.4315  -23.0144 C   0  0  0  0  0  0  0  0  0  0  0  0
  -11.3227   -0.3105  -23.2151 C   0  0  0  0  0  0  0  0  0  0  0  0
  -12.7910   -0.3011  -23.5216 C   0  0  0  0  0  0  0  0  0  0  0  0
  -13.2367    1.1284  -23.6106 C   0  0  0  0  0  0  0  0  0  0  0  0
  -12.0439    2.0024  -23.3591 S   0  0  0  0  0  0  0  0  0  0  0  0
  -10.8609    1.1131  -23.1146 C   0  0  0  0  0  0  0  0  0  0  0  0
   -9.4230    1.4157  -22.8135 C   0  0  0  0  0  0  0  0  0  0  0  0
   -8.4467    0.2947  -22.6129 C   0  0  0  0  0  0  0  0  0  0  0  0
   -8.9084   -1.1289  -22.7133 N   0  0  0  0  0  0  0  0  0  0  0  0
   -7.9322   -2.2499  -22.5126 C   0  0  0  0  0  0  0  0  0  0  0  0
   -8.3940   -3.6736  -22.6131 O   0  0  0  0  0  0  0  0  0  0  0  0
   -6.4942   -1.9473  -22.2115 C   0  0  0  0  0  0  0  0  0  0  0  0
   -6.1241   -1.2663  -20.9273 C   0  0  0  0  0  0  0  0  0  0  0  0
   -6.9160   -1.5328  -19.6817 C   0  0  0  0  0  0  0  0  0  0  0  0
   -6.5459   -0.8518  -18.3975 N   0  0  0  0  0  0  0  0  0  0  0  0
   -5.3838    0.0958  -18.3589 C   0  0  0  0  0  0  0  0  0  0  0  0
   -4.5918    0.3624  -19.6046 C   0  0  0  0  0  0  0  0  0  0  0  0
   -3.4297    1.3100  -19.5661 C   0  0  0  0  0  0  0  0  0  0  0  0
   -2.6377    1.5765  -20.8118 C   0  0  0  0  0  0  0  0  0  0  0  0
   -3.0079    0.8955  -22.0960 C   0  0  0  0  0  0  0  0  0  0  0  0
   -4.1700   -0.0521  -22.1345 C   0  0  0  0  0  0  0  0  0  0  0  0
   -4.9619   -0.3186  -20.8888 C   0  0  0  0  0  0  0  0  0  0  0  0
  2  1  1  0  0  0
  2  3  1  0  0  0
  3  4  1  0  0  0
  4  5  2  0  0  0
  5  6  1  0  0  0
  6  7  1  0  0  0
  7  8  1  0  0  0
  8  9  1  0  0  0
  9 10  1  0  0  0
 10 11  1  0  0  0
 11 12  2  0  0  0
 11 13  1  0  0  0
 13 14  1  0  0  0
 14 15  2  0  0  0
 15 16  1  0  0  0
 16 17  2  0  0  0
 17 18  1  0  0  0
 18 19  2  0  0  0
 19 20  1  0  0  0
 20 21  2  0  0  0
 21 22  1  0  0  0
 22 23  2  0  0  0
 10  2  1  0  0  0
 23 14  1  0  0  0
  7  3  2  0  0  0
 23 18  1  0  0  0
M  END
> <minimizedAffinity>
-7.61784

> <CNNscore>
0.5391038060

> <CNNaffinity>
5.3374156952

> <CNN_VS>
2.8774211407

> <CNNaffinity_variance>
0.3288173974

$$$$



 23 26  0  0  0  0  0  0  0  0999 V2000
   -6.6303   -0.6623  -19.8633 C   0  0  0  0  0  0  0  0  0  0  0  0
   -6.1479    0.2925  -20.9148 C   0  0  0  0  0  0  0  0  0  0  0  0
   -4.8993    1.0917  -20.6861 C   0  0  0  0  0  0  0  0  0  0  0  0
   -3.9422    1.1502  -19.5327 C   0  0  0  0  0  0  0  0  0  0  0  0
   -2.8682    2.1411  -19.8713 C   0  0  0  0  0  0  0  0  0  0  0  0
   -3.1616    2.6950  -21.2341 S   0  0  0  0  0  0  0  0  0  0  0  0
   -4.4169    2.0465  -21.7377 C   0  0  0  0  0  0  0  0  0  0  0  0
   -5.1830    2.2020  -23.0178 C   0  0  0  0  0  0  0  0  0  0  0  0
   -6.4315    1.4027  -23.2465 C   0  0  0  0  0  0  0  0  0  0  0  0
   -6.9140    0.4480  -22.1951 N   0  0  0  0  0  0  0  0  0  0  0  0
   -8.1625   -0.3513  -22.4238 C   0  0  0  0  0  0  0  0  0  0  0  0
   -8.6449   -1.3061  -21.3722 O   0  0  0  0  0  0  0  0  0  0  0  0
   -8.9286   -0.1958  -23.7039 C   0  0  0  0  0  0  0  0  0  0  0  0
  -10.2990    0.4140  -23.6886 C   0  0  0  0  0  0  0  0  0  0  0  0
  -10.4796    1.8617  -24.0373 C   0  0  0  0  0  0  0  0  0  0  0  0
  -11.8500    2.4715  -24.0219 N   0  0  0  0  0  0  0  0  0  0  0  0
  -13.0397    1.6336  -23.6579 C   0  0  0  0  0  0  0  0  0  0  0  0
  -12.8591    0.1859  -23.3092 C   0  0  0  0  0  0  0  0  0  0  0  0
  -14.0488   -0.6519  -22.9452 C   0  0  0  0  0  0  0  0  0  0  0  0
  -13.8682   -2.0996  -22.5965 C   0  0  0  0  0  0  0  0  0  0  0  0
  -12.4978   -2.7094  -22.6118 C   0  0  0  0  0  0  0  0  0  0  0  0
  -11.3081   -1.8716  -22.9759 C   0  0  0  0  0  0  0  0  0  0  0  0
  -11.4887   -0.4239  -23.3245 C   0  0  0  0  0  0  0  0  0  0  0  0
  2  1  1  0  0  0
  2  3  1  0  0  0
  3  4  1  0  0  0
  4  5  2  0  0  0
  5  6  1  0  0  0
  6  7  1  0  0  0
  7  8  1  0  0  0
  8  9  1  0  0  0
  9 10  1  0  0  0
 10 11  1  0  0  0
 11 12  2  0  0  0
 11 13  1  0  0  0
 13 14  1  0  0  0
 14 15  2  0  0  0
 15 16  1  0  0  0
 16 17  2  0  0  0
 17 18  1  0  0  0
 18 19  2  0  0  0
 19 20  1  0  0  0
 20 21  2  0  0  0
 21 22  1  0  0  0
 22 23  2  0  0  0
 10  2  1  0  0  0
 23 14  1  0  0  0
  7  3  2  0  0  0
 23 18  1  0  0  0
M  END
> <minimizedAffinity>
-6.59496

> <CNNscore>
0.4487194419

> <CNNaffinity>
4.8132386208

> <CNN_VS>
2.1597938538

> <CNNaffinity_variance>
0.1413882226

$$$$



 23 26  0  0  0  0  0  0  0  0999 V2000
   -4.7278    0.7581  -18.6525 C   0  0  0  0  0  0  0  0  0  0  0  0
   -4.2916    0.7375  -20.0874 C   0  0  0  0  0  0  0  0  0  0  0  0
   -2.9418    1.2693  -20.4687 C   0  0  0  0  0  0  0  0  0  0  0  0
   -1.8339    1.8710  -19.6561 C   0  0  0  0  0  0  0  0  0  0  0  0
   -0.7130    2.2223  -20.5889 C   0  0  0  0  0  0  0  0  0  0  0  0
   -1.1281    1.8376  -21.9780 S   0  0  0  0  0  0  0  0  0  0  0  0
   -2.5056    1.2487  -21.9038 C   0  0  0  0  0  0  0  0  0  0  0  0
   -3.4191    0.6962  -22.9575 C   0  0  0  0  0  0  0  0  0  0  0  0
   -4.7689    0.1644  -22.5762 C   0  0  0  0  0  0  0  0  0  0  0  0
   -5.2051    0.1850  -21.1412 N   0  0  0  0  0  0  0  0  0  0  0  0
   -6.5548   -0.3468  -20.7599 C   0  0  0  0  0  0  0  0  0  0  0  0
   -6.9910   -0.3261  -19.3248 O   0  0  0  0  0  0  0  0  0  0  0  0
   -7.4683   -0.8992  -21.8136 C   0  0  0  0  0  0  0  0  0  0  0  0
   -8.4980   -0.0149  -22.4522 C   0  0  0  0  0  0  0  0  0  0  0  0
   -8.1581    1.4051  -22.7956 C   0  0  0  0  0  0  0  0  0  0  0  0
   -9.1877    2.2894  -23.4342 N   0  0  0  0  0  0  0  0  0  0  0  0
  -10.5573    1.7536  -23.7295 C   0  0  0  0  0  0  0  0  0  0  0  0
  -10.8973    0.3335  -23.3861 C   0  0  0  0  0  0  0  0  0  0  0  0
  -12.2668   -0.2022  -23.6814 C   0  0  0  0  0  0  0  0  0  0  0  0
  -12.6067   -1.6222  -23.3380 C   0  0  0  0  0  0  0  0  0  0  0  0
  -11.5771   -2.5065  -22.6994 C   0  0  0  0  0  0  0  0  0  0  0  0
  -10.2075   -1.9708  -22.4041 C   0  0  0  0  0  0  0  0  0  0  0  0
   -9.8676   -0.5508  -22.7475 C   0  0  0  0  0  0  0  0  0  0  0  0
  2  1  1  0  0  0
  2  3  1  0  0  0
  3  4  1  0  0  0
  4  5  2  0  0  0
  5  6  1  0  0  0
  6  7  1  0  0  0
  7  8  1  0  0  0
  8  9  1  0  0  0
  9 10  1  0  0  0
 10 11  1  0  0  0
 11 12  2  0  0  0
 11 13  1  0  0  0
 13 14  1  0  0  0
 14 15  2  0  0  0
 15 16  1  0  0  0
 16 17  2  0  0  0
 17 18  1  0  0  0
 18 19  2  0  0  0
 19 20  1  0  0  0
 20 21  2  0  0  0
 21 22  1  0  0  0
 22 23  2  0  0  0
 10  2  1  0  0  0
 23 14  1  0  0  0
  7  3  2  0  0  0
 23 18  1  0  0  0
M  END
> <minimizedAffinity>
-6.37918

> <CNNscore>
0.4398107231

> <CNNaffinity>
4.8871240616

> <CNN_VS>
2.1494095325

> <CNNaffinity_variance>
0.2052734345

$$$$



 23 26  0  0  0  0  0  0  0  0999 V2000
   -4.9749    0.3686  -18.3221 C   0  0  0  0  0  0  0  0  0  0  0  0
   -4.8176    0.5979  -19.7961 C   0  0  0  0  0  0  0  0  0  0  0  0
   -3.6361    1.3633  -20.3142 C   0  0  0  0  0  0  0  0  0  0  0  0
   -2.4737    2.0071  -19.6183 C   0  0  0  0  0  0  0  0  0  0  0  0
   -1.5980    2.6342  -20.6622 C   0  0  0  0  0  0  0  0  0  0  0  0
   -2.2192    2.3780  -22.0033 S   0  0  0  0  0  0  0  0  0  0  0  0
   -3.4788    1.5925  -21.7883 C   0  0  0  0  0  0  0  0  0  0  0  0
   -4.5029    1.0564  -22.7441 C   0  0  0  0  0  0  0  0  0  0  0  0
   -5.6844    0.2911  -22.2261 C   0  0  0  0  0  0  0  0  0  0  0  0
   -5.8417    0.0618  -20.7521 N   0  0  0  0  0  0  0  0  0  0  0  0
   -7.0231   -0.7036  -20.2340 C   0  0  0  0  0  0  0  0  0  0  0  0
   -7.1804   -0.9329  -18.7599 O   0  0  0  0  0  0  0  0  0  0  0  0
   -8.0472   -1.2397  -21.1899 C   0  0  0  0  0  0  0  0  0  0  0  0
   -7.7501   -2.4698  -21.9953 C   0  0  0  0  0  0  0  0  0  0  0  0
   -6.4676   -3.2167  -21.7781 C   0  0  0  0  0  0  0  0  0  0  0  0
   -6.1704   -4.4468  -22.5835 N   0  0  0  0  0  0  0  0  0  0  0  0
   -7.1558   -4.9299  -23.6060 C   0  0  0  0  0  0  0  0  0  0  0  0
   -8.4384   -4.1830  -23.8232 C   0  0  0  0  0  0  0  0  0  0  0  0
   -9.4238   -4.6661  -24.8457 C   0  0  0  0  0  0  0  0  0  0  0  0
  -10.7063   -3.9191  -25.0629 C   0  0  0  0  0  0  0  0  0  0  0  0
  -11.0034   -2.6891  -24.2575 C   0  0  0  0  0  0  0  0  0  0  0  0
  -10.0181   -2.2059  -23.2350 C   0  0  0  0  0  0  0  0  0  0  0  0
   -8.7356   -2.9529  -23.0178 C   0  0  0  0  0  0  0  0  0  0  0  0
  2  1  1  0  0  0
  2  3  1  0  0  0
  3  4  1  0  0  0
  4  5  2  0  0  0
  5  6  1  0  0  0
  6  7  1  0  0  0
  7  8  1  0  0  0
  8  9  1  0  0  0
  9 10  1  0  0  0
 10 11  1  0  0  0
 11 12  2  0  0  0
 11 13  1  0  0  0
 13 14  1  0  0  0
 14 15  2  0  0  0
 15 16  1  0  0  0
 16 17  2  0  0  0
 17 18  1  0  0  0
 18 19  2  0  0  0
 19 20  1  0  0  0
 20 21  2  0  0  0
 21 22  1  0  0  0
 22 23  2  0  0  0
 10  2  1  0  0  0
 23 14  1  0  0  0
  7  3  2  0  0  0
 23 18  1  0  0  0
M  END
> <minimizedAffinity>
-6.73594

> <CNNscore>
0.4327307045

> <CNNaffinity>
5.0989027023

> <CNN_VS>
2.2064516544

> <CNNaffinity_variance>
0.3463013470

$$$$



 23 26  0  0  0  0  0  0  0  0999 V2000
  -12.8821   -0.9214  -23.1319 C   0  0  0  0  0  0  0  0  0  0  0  0
  -11.8301    0.0796  -23.5077 C   0  0  0  0  0  0  0  0  0  0  0  0
  -12.1611    1.5424  -23.5317 C   0  0  0  0  0  0  0  0  0  0  0  0
  -13.4274    2.2899  -23.2356 C   0  0  0  0  0  0  0  0  0  0  0  0
  -13.1580    3.7529  -23.4284 C   0  0  0  0  0  0  0  0  0  0  0  0
  -11.7251    3.9095  -23.8437 S   0  0  0  0  0  0  0  0  0  0  0  0
  -11.1090    2.5434  -23.9075 C   0  0  0  0  0  0  0  0  0  0  0  0
   -9.7260    2.0815  -24.2593 C   0  0  0  0  0  0  0  0  0  0  0  0
   -9.3949    0.6187  -24.2353 C   0  0  0  0  0  0  0  0  0  0  0  0
  -10.4470   -0.3823  -23.8595 N   0  0  0  0  0  0  0  0  0  0  0  0
  -10.1160   -1.8451  -23.8355 C   0  0  0  0  0  0  0  0  0  0  0  0
  -11.1681   -2.8461  -23.4596 O   0  0  0  0  0  0  0  0  0  0  0  0
   -8.7329   -2.3070  -24.1873 C   0  0  0  0  0  0  0  0  0  0  0  0
   -8.3945   -3.7674  -24.1372 C   0  0  0  0  0  0  0  0  0  0  0  0
   -7.7718   -4.3512  -22.9038 C   0  0  0  0  0  0  0  0  0  0  0  0
   -7.4334   -5.8116  -22.8537 N   0  0  0  0  0  0  0  0  0  0  0  0
   -7.7177   -6.6884  -24.0371 C   0  0  0  0  0  0  0  0  0  0  0  0
   -8.3404   -6.1046  -25.2707 C   0  0  0  0  0  0  0  0  0  0  0  0
   -8.6246   -6.9814  -26.4541 C   0  0  0  0  0  0  0  0  0  0  0  0
   -9.2473   -6.3976  -27.6875 C   0  0  0  0  0  0  0  0  0  0  0  0
   -9.5857   -4.9372  -27.7376 C   0  0  0  0  0  0  0  0  0  0  0  0
   -9.3015   -4.0604  -26.5542 C   0  0  0  0  0  0  0  0  0  0  0  0
   -8.6788   -4.6442  -25.3207 C   0  0  0  0  0  0  0  0  0  0  0  0
  2  1  1  0  0  0
  2  3  1  0  0  0
  3  4  1  0  0  0
  4  5  2  0  0  0
  5  6  1  0  0  0
  6  7  1  0  0  0
  7  8  1  0  0  0
  8  9  1  0  0  0
  9 10  1  0  0  0
 10 11  1  0  0  0
 11 12  2  0  0  0
 11 13  1  0  0  0
 13 14  1  0  0  0
 14 15  2  0  0  0
 15 16  1  0  0  0
 16 17  2  0  0  0
 17 18  1  0  0  0
 18 19  2  0  0  0
 19 20  1  0  0  0
 20 21  2  0  0  0
 21 22  1  0  0  0
 22 23  2  0  0  0
 10  2  1  0  0  0
 23 14  1  0  0  0
  7  3  2  0  0  0
 23 18  1  0  0  0
M  END
> <minimizedAffinity>
-6.75552

> <CNNscore>
0.4148993492

> <CNNaffinity>
5.1761913300

> <CNN_VS>
2.1475985050

> <CNNaffinity_variance>
0.2261230052

$$$$



 23 26  0  0  0  0  0  0  0  0999 V2000
   -4.8321    0.3175  -19.1933 C   0  0  0  0  0  0  0  0  0  0  0  0
   -4.5832    1.1372  -20.4246 C   0  0  0  0  0  0  0  0  0  0  0  0
   -3.2726    1.8447  -20.6024 C   0  0  0  0  0  0  0  0  0  0  0  0
   -2.0468    1.9183  -19.7410 C   0  0  0  0  0  0  0  0  0  0  0  0
   -1.0403    2.7835  -20.4399 C   0  0  0  0  0  0  0  0  0  0  0  0
   -1.6441    3.2446  -21.7333 S   0  0  0  0  0  0  0  0  0  0  0  0
   -3.0237    2.6644  -21.8337 C   0  0  0  0  0  0  0  0  0  0  0  0
   -4.0855    2.7766  -22.8873 C   0  0  0  0  0  0  0  0  0  0  0  0
   -5.3961    2.0690  -22.7095 C   0  0  0  0  0  0  0  0  0  0  0  0
   -5.6450    1.2494  -21.4782 N   0  0  0  0  0  0  0  0  0  0  0  0
   -6.9557    0.5418  -21.3005 C   0  0  0  0  0  0  0  0  0  0  0  0
   -7.2045   -0.2779  -20.0691 O   0  0  0  0  0  0  0  0  0  0  0  0
   -8.0174    0.6540  -22.3540 C   0  0  0  0  0  0  0  0  0  0  0  0
   -9.0125   -0.4535  -22.5369 C   0  0  0  0  0  0  0  0  0  0  0  0
   -8.5867   -1.8809  -22.3610 C   0  0  0  0  0  0  0  0  0  0  0  0
   -9.5817   -2.9884  -22.5439 N   0  0  0  0  0  0  0  0  0  0  0  0
  -11.0025   -2.6684  -22.9028 C   0  0  0  0  0  0  0  0  0  0  0  0
  -11.4284   -1.2409  -23.0788 C   0  0  0  0  0  0  0  0  0  0  0  0
  -12.8492   -0.9209  -23.4376 C   0  0  0  0  0  0  0  0  0  0  0  0
  -13.2750    0.5066  -23.6136 C   0  0  0  0  0  0  0  0  0  0  0  0
  -12.2800    1.6141  -23.4306 C   0  0  0  0  0  0  0  0  0  0  0  0
  -10.8591    1.2941  -23.0718 C   0  0  0  0  0  0  0  0  0  0  0  0
  -10.4334   -0.1334  -22.8958 C   0  0  0  0  0  0  0  0  0  0  0  0
  2  1  1  0  0  0
  2  3  1  0  0  0
  3  4  1  0  0  0
  4  5  2  0  0  0
  5  6  1  0  0  0
  6  7  1  0  0  0
  7  8  1  0  0  0
  8  9  1  0  0  0
  9 10  1  0  0  0
 10 11  1  0  0  0
 11 12  2  0  0  0
 11 13  1  0  0  0
 13 14  1  0  0  0
 14 15  2  0  0  0
 15 16  1  0  0  0
 16 17  2  0  0  0
 17 18  1  0  0  0
 18 19  2  0  0  0
 19 20  1  0  0  0
 20 21  2  0  0  0
 21 22  1  0  0  0
 22 23  2  0  0  0
 10  2  1  0  0  0
 23 14  1  0  0  0
  7  3  2  0  0  0
 23 18  1  0  0  0
M  END
> <minimizedAffinity>
-6.74684

> <CNNscore>
0.3962362409

> <CNNaffinity>
4.8452572823

> <CNN_VS>
1.9198665619

> <CNNaffinity_variance>
0.1431413144

$$$$



 23 26  0  0  0  0  0  0  0  0999 V2000
   -8.7052   -4.8803  -26.7682 C   0  0  0  0  0  0  0  0  0  0  0  0
   -7.9877   -5.1258  -25.4741 C   0  0  0  0  0  0  0  0  0  0  0  0
   -6.8437   -6.0947  -25.4228 C   0  0  0  0  0  0  0  0  0  0  0  0
   -6.2032   -6.9481  -26.4771 C   0  0  0  0  0  0  0  0  0  0  0  0
   -5.0898   -7.7210  -25.8345 C   0  0  0  0  0  0  0  0  0  0  0  0
   -5.0422   -7.3453  -24.3831 S   0  0  0  0  0  0  0  0  0  0  0  0
   -6.1262   -6.3402  -24.1286 C   0  0  0  0  0  0  0  0  0  0  0  0
   -6.5526   -5.6169  -22.8857 C   0  0  0  0  0  0  0  0  0  0  0  0
   -7.6966   -4.6480  -22.9369 C   0  0  0  0  0  0  0  0  0  0  0  0
   -8.4141   -4.4025  -24.2311 N   0  0  0  0  0  0  0  0  0  0  0  0
   -9.5580   -3.4336  -24.2823 C   0  0  0  0  0  0  0  0  0  0  0  0
  -10.2756   -3.1880  -25.5765 O   0  0  0  0  0  0  0  0  0  0  0  0
   -9.9845   -2.7102  -23.0394 C   0  0  0  0  0  0  0  0  0  0  0  0
  -11.3067   -2.0030  -22.9994 C   0  0  0  0  0  0  0  0  0  0  0  0
  -12.5482   -2.7548  -22.6206 C   0  0  0  0  0  0  0  0  0  0  0  0
  -13.8704   -2.0476  -22.5806 N   0  0  0  0  0  0  0  0  0  0  0  0
  -13.9511   -0.5886  -22.9196 C   0  0  0  0  0  0  0  0  0  0  0  0
  -12.7096    0.1632  -23.2985 C   0  0  0  0  0  0  0  0  0  0  0  0
  -12.7904    1.6221  -23.6374 C   0  0  0  0  0  0  0  0  0  0  0  0
  -11.5489    2.3739  -24.0162 C   0  0  0  0  0  0  0  0  0  0  0  0
  -10.2267    1.6667  -24.0562 C   0  0  0  0  0  0  0  0  0  0  0  0
  -10.1459    0.2078  -23.7172 C   0  0  0  0  0  0  0  0  0  0  0  0
  -11.3874   -0.5440  -23.3384 C   0  0  0  0  0  0  0  0  0  0  0  0
  2  1  1  0  0  0
  2  3  1  0  0  0
  3  4  1  0  0  0
  4  5  2  0  0  0
  5  6  1  0  0  0
  6  7  1  0  0  0
  7  8  1  0  0  0
  8  9  1  0  0  0
  9 10  1  0  0  0
 10 11  1  0  0  0
 11 12  2  0  0  0
 11 13  1  0  0  0
 13 14  1  0  0  0
 14 15  2  0  0  0
 15 16  1  0  0  0
 16 17  2  0  0  0
 17 18  1  0  0  0
 18 19  2  0  0  0
 19 20  1  0  0  0
 20 21  2  0  0  0
 21 22  1  0  0  0
 22 23  2  0  0  0
 10  2  1  0  0  0
 23 14  1  0  0  0
  7  3  2  0  0  0
 23 18  1  0  0  0
M  END
> <minimizedAffinity>
-6.75605

> <CNNscore>
0.3917838931

> <CNNaffinity>
5.0296750069

> <CNN_VS>
1.9705456495

> <CNNaffinity_variance>
0.4021518826

$$$$
