


 23 26  0  0  0  0  0  0  0  0999 V2000
    7.7551    2.2337   22.2663 C   0  0  0  0  0  0  0  0  0  0  0  0
    9.2363    2.1530   22.4886 C   0  0  0  0  0  0  0  0  0  0  0  0
   10.0336    3.4072   22.6922 C   0  0  0  0  0  0  0  0  0  0  0  0
    9.6382    4.8537   22.7251 C   0  0  0  0  0  0  0  0  0  0  0  0
   10.8750    5.6670   22.9677 C   0  0  0  0  0  0  0  0  0  0  0  0
   12.0348    4.7230   23.0848 S   0  0  0  0  0  0  0  0  0  0  0  0
   11.5149    3.3264   22.9145 C   0  0  0  0  0  0  0  0  0  0  0  0
   12.1988    1.9915   22.9332 C   0  0  0  0  0  0  0  0  0  0  0  0
   11.4015    0.7374   22.7296 C   0  0  0  0  0  0  0  0  0  0  0  0
    9.9203    0.8181   22.5073 N   0  0  0  0  0  0  0  0  0  0  0  0
    9.1230   -0.4360   22.3037 C   0  0  0  0  0  0  0  0  0  0  0  0
    7.6417   -0.3552   22.0814 O   0  0  0  0  0  0  0  0  0  0  0  0
    9.8069   -1.7709   22.3224 C   0  0  0  0  0  0  0  0  0  0  0  0
    9.7704   -2.6150   23.5617 C   0  0  0  0  0  0  0  0  0  0  0  0
    8.5411   -3.4079   23.8933 C   0  0  0  0  0  0  0  0  0  0  0  0
    8.5046   -4.2520   25.1327 N   0  0  0  0  0  0  0  0  0  0  0  0
    9.6975   -4.3033   26.0405 C   0  0  0  0  0  0  0  0  0  0  0  0
   10.9270   -3.5104   25.7090 C   0  0  0  0  0  0  0  0  0  0  0  0
   12.1199   -3.5617   26.6169 C   0  0  0  0  0  0  0  0  0  0  0  0
   13.3493   -2.7688   26.2854 C   0  0  0  0  0  0  0  0  0  0  0  0
   13.3857   -1.9247   25.0460 C   0  0  0  0  0  0  0  0  0  0  0  0
   12.1928   -1.8734   24.1381 C   0  0  0  0  0  0  0  0  0  0  0  0
   10.9634   -2.6663   24.4696 C   0  0  0  0  0  0  0  0  0  0  0  0
  2  1  1  0  0  0
  2  3  1  0  0  0
  3  4  1  0  0  0
  4  5  2  0  0  0
  5  6  1  0  0  0
  6  7  1  0  0  0
  7  8  1  0  0  0
  8  9  1  0  0  0
  9 10  1  0  0  0
 10 11  1  0  0  0
 11 12  2  0  0  0
 11 13  1  0  0  0
 13 14  1  0  0  0
 14 15  2  0  0  0
 15 16  1  0  0  0
 16 17  2  0  0  0
 17 18  1  0  0  0
 18 19  2  0  0  0
 19 20  1  0  0  0
 20 21  2  0  0  0
 21 22  1  0  0  0
 22 23  2  0  0  0
 10  2  1  0  0  0
 23 14  1  0  0  0
  7  3  2  0  0  0
 23 18  1  0  0  0
M  END
> <minimizedAffinity>
-7.23677

> <CNNscore>
0.7369726896

> <CNNaffinity>
5.9150509834

> <CNN_VS>
4.3592309952

> <CNNaffinity_variance>
0.0576464348

$$$$



 23 26  0  0  0  0  0  0  0  0999 V2000
   10.5523    1.0876   23.0148 C   0  0  0  0  0  0  0  0  0  0  0  0
   10.1241   -0.2911   23.4220 C   0  0  0  0  0  0  0  0  0  0  0  0
   10.9842   -1.1012   24.3462 C   0  0  0  0  0  0  0  0  0  0  0  0
   12.2961   -0.8078   25.0116 C   0  0  0  0  0  0  0  0  0  0  0  0
   12.6787   -2.0051   25.8301 C   0  0  0  0  0  0  0  0  0  0  0  0
   11.6033   -3.0386   25.6705 S   0  0  0  0  0  0  0  0  0  0  0  0
   10.5560   -2.4800   24.7534 C   0  0  0  0  0  0  0  0  0  0  0  0
    9.2678   -3.0486   24.2364 C   0  0  0  0  0  0  0  0  0  0  0  0
    8.4078   -2.2384   23.3123 C   0  0  0  0  0  0  0  0  0  0  0  0
    8.8359   -0.8597   22.9051 N   0  0  0  0  0  0  0  0  0  0  0  0
    7.9759   -0.0496   21.9809 C   0  0  0  0  0  0  0  0  0  0  0  0
    8.4041    1.3291   21.5737 O   0  0  0  0  0  0  0  0  0  0  0  0
    6.6877   -0.6182   21.4640 C   0  0  0  0  0  0  0  0  0  0  0  0
    6.0428   -0.0276   20.2452 C   0  0  0  0  0  0  0  0  0  0  0  0
    6.6638   -0.2308   18.8951 C   0  0  0  0  0  0  0  0  0  0  0  0
    6.0189    0.3598   17.6763 N   0  0  0  0  0  0  0  0  0  0  0  0
    4.7529    1.1535   17.8078 C   0  0  0  0  0  0  0  0  0  0  0  0
    4.1318    1.3566   19.1580 C   0  0  0  0  0  0  0  0  0  0  0  0
    2.8659    2.1503   19.2894 C   0  0  0  0  0  0  0  0  0  0  0  0
    2.2448    2.3535   20.6396 C   0  0  0  0  0  0  0  0  0  0  0  0
    2.8897    1.7629   21.8583 C   0  0  0  0  0  0  0  0  0  0  0  0
    4.1557    0.9692   21.7269 C   0  0  0  0  0  0  0  0  0  0  0  0
    4.7767    0.7661   20.3767 C   0  0  0  0  0  0  0  0  0  0  0  0
  2  1  1  0  0  0
  2  3  1  0  0  0
  3  4  1  0  0  0
  4  5  2  0  0  0
  5  6  1  0  0  0
  6  7  1  0  0  0
  7  8  1  0  0  0
  8  9  1  0  0  0
  9 10  1  0  0  0
 10 11  1  0  0  0
 11 12  2  0  0  0
 11 13  1  0  0  0
 13 14  1  0  0  0
 14 15  2  0  0  0
 15 16  1  0  0  0
 16 17  2  0  0  0
 17 18  1  0  0  0
 18 19  2  0  0  0
 19 20  1  0  0  0
 20 21  2  0  0  0
 21 22  1  0  0  0
 22 23  2  0  0  0
 10  2  1  0  0  0
 23 14  1  0  0  0
  7  3  2  0  0  0
 23 18  1  0  0  0
M  END
> <minimizedAffinity>
-7.66215

> <CNNscore>
0.6677966118

> <CNNaffinity>
5.5803632736

> <CNN_VS>
3.7265477180

> <CNNaffinity_variance>
0.0597914532

$$$$



 23 26  0  0  0  0  0  0  0  0999 V2000
    8.5528   -3.1560   23.9333 C   0  0  0  0  0  0  0  0  0  0  0  0
    9.6266   -2.1093   23.9014 C   0  0  0  0  0  0  0  0  0  0  0  0
   10.8587   -2.2728   24.7412 C   0  0  0  0  0  0  0  0  0  0  0  0
   11.2902   -3.3507   25.6909 C   0  0  0  0  0  0  0  0  0  0  0  0
   12.6307   -2.9701   26.2459 C   0  0  0  0  0  0  0  0  0  0  0  0
   13.0277   -1.6570   25.6392 S   0  0  0  0  0  0  0  0  0  0  0  0
   11.9326   -1.2260   24.7093 C   0  0  0  0  0  0  0  0  0  0  0  0
   11.7744   -0.0156   23.8375 C   0  0  0  0  0  0  0  0  0  0  0  0
   10.5423    0.1479   22.9977 C   0  0  0  0  0  0  0  0  0  0  0  0
    9.4685   -0.8988   23.0296 N   0  0  0  0  0  0  0  0  0  0  0  0
    8.2364   -0.7352   22.1898 C   0  0  0  0  0  0  0  0  0  0  0  0
    7.1625   -1.7821   22.2218 O   0  0  0  0  0  0  0  0  0  0  0  0
    8.0782    0.4751   21.3181 C   0  0  0  0  0  0  0  0  0  0  0  0
    6.9944    0.5167   20.2819 C   0  0  0  0  0  0  0  0  0  0  0  0
    7.0525   -0.4032   19.0985 C   0  0  0  0  0  0  0  0  0  0  0  0
    5.9687   -0.3616   18.0624 N   0  0  0  0  0  0  0  0  0  0  0  0
    4.8268    0.5998   18.2096 C   0  0  0  0  0  0  0  0  0  0  0  0
    4.7686    1.5197   19.3930 C   0  0  0  0  0  0  0  0  0  0  0  0
    3.6267    2.4811   19.5403 C   0  0  0  0  0  0  0  0  0  0  0  0
    3.5686    3.4009   20.7237 C   0  0  0  0  0  0  0  0  0  0  0  0
    4.6524    3.3594   21.7598 C   0  0  0  0  0  0  0  0  0  0  0  0
    5.7944    2.3980   21.6126 C   0  0  0  0  0  0  0  0  0  0  0  0
    5.8525    1.4781   20.4292 C   0  0  0  0  0  0  0  0  0  0  0  0
  2  1  1  0  0  0
  2  3  1  0  0  0
  3  4  1  0  0  0
  4  5  2  0  0  0
  5  6  1  0  0  0
  6  7  1  0  0  0
  7  8  1  0  0  0
  8  9  1  0  0  0
  9 10  1  0  0  0
 10 11  1  0  0  0
 11 12  2  0  0  0
 11 13  1  0  0  0
 13 14  1  0  0  0
 14 15  2  0  0  0
 15 16  1  0  0  0
 16 17  2  0  0  0
 17 18  1  0  0  0
 18 19  2  0  0  0
 19 20  1  0  0  0
 20 21  2  0  0  0
 21 22  1  0  0  0
 22 23  2  0  0  0
 10  2  1  0  0  0
 23 14  1  0  0  0
  7  3  2  0  0  0
 23 18  1  0  0  0
M  END
> <minimizedAffinity>
-7.86892

> <CNNscore>
0.5925348997

> <CNNaffinity>
5.5766263008

> <CNN_VS>
3.3043456078

> <CNNaffinity_variance>
0.1181394011

$$$$



 23 26  0  0  0  0  0  0  0  0999 V2000
    5.6047   -2.0765   21.7136 C   0  0  0  0  0  0  0  0  0  0  0  0
    6.3852   -2.9454   22.6547 C   0  0  0  0  0  0  0  0  0  0  0  0
    6.1880   -4.4323   22.6408 C   0  0  0  0  0  0  0  0  0  0  0  0
    5.3016   -5.3196   21.8181 C   0  0  0  0  0  0  0  0  0  0  0  0
    5.5343   -6.7369   22.2507 C   0  0  0  0  0  0  0  0  0  0  0  0
    6.5646   -6.7255   23.3409 S   0  0  0  0  0  0  0  0  0  0  0  0
    6.9686   -5.3012   23.5820 C   0  0  0  0  0  0  0  0  0  0  0  0
    7.9464   -4.6832   24.5369 C   0  0  0  0  0  0  0  0  0  0  0  0
    8.1436   -3.1963   24.5508 C   0  0  0  0  0  0  0  0  0  0  0  0
    7.3631   -2.3274   23.6097 N   0  0  0  0  0  0  0  0  0  0  0  0
    7.5603   -0.8405   23.6235 C   0  0  0  0  0  0  0  0  0  0  0  0
    6.7797    0.0284   22.6823 O   0  0  0  0  0  0  0  0  0  0  0  0
    8.5381   -0.2225   24.5784 C   0  0  0  0  0  0  0  0  0  0  0  0
    9.9839   -0.1014   24.1977 C   0  0  0  0  0  0  0  0  0  0  0  0
   10.4036    0.8879   23.1512 C   0  0  0  0  0  0  0  0  0  0  0  0
   11.8494    1.0090   22.7705 N   0  0  0  0  0  0  0  0  0  0  0  0
   12.8755    0.1409   23.4363 C   0  0  0  0  0  0  0  0  0  0  0  0
   12.4559   -0.8484   24.4829 C   0  0  0  0  0  0  0  0  0  0  0  0
   13.4820   -1.7165   25.1487 C   0  0  0  0  0  0  0  0  0  0  0  0
   13.0623   -2.7058   26.1952 C   0  0  0  0  0  0  0  0  0  0  0  0
   11.6165   -2.8269   26.5759 C   0  0  0  0  0  0  0  0  0  0  0  0
   10.5904   -1.9588   25.9101 C   0  0  0  0  0  0  0  0  0  0  0  0
   11.0101   -0.9695   24.8636 C   0  0  0  0  0  0  0  0  0  0  0  0
  2  1  1  0  0  0
  2  3  1  0  0  0
  3  4  1  0  0  0
  4  5  2  0  0  0
  5  6  1  0  0  0
  6  7  1  0  0  0
  7  8  1  0  0  0
  8  9  1  0  0  0
  9 10  1  0  0  0
 10 11  1  0  0  0
 11 12  2  0  0  0
 11 13  1  0  0  0
 13 14  1  0  0  0
 14 15  2  0  0  0
 15 16  1  0  0  0
 16 17  2  0  0  0
 17 18  1  0  0  0
 18 19  2  0  0  0
 19 20  1  0  0  0
 20 21  2  0  0  0
 21 22  1  0  0  0
 22 23  2  0  0  0
 10  2  1  0  0  0
 23 14  1  0  0  0
  7  3  2  0  0  0
 23 18  1  0  0  0
M  END
> <minimizedAffinity>
-6.92846

> <CNNscore>
0.5490007401

> <CNNaffinity>
5.7155523300

> <CNN_VS>
3.1378424168

> <CNNaffinity_variance>
0.1347894967

$$$$



 23 26  0  0  0  0  0  0  0  0999 V2000
   10.7123   -0.6695   22.5900 C   0  0  0  0  0  0  0  0  0  0  0  0
   10.6008   -1.7502   23.6242 C   0  0  0  0  0  0  0  0  0  0  0  0
   11.7233   -1.9807   24.5921 C   0  0  0  0  0  0  0  0  0  0  0  0
   13.0517   -1.3065   24.7676 C   0  0  0  0  0  0  0  0  0  0  0  0
   13.7612   -1.9705   25.9102 C   0  0  0  0  0  0  0  0  0  0  0  0
   12.8712   -3.0551   26.4410 S   0  0  0  0  0  0  0  0  0  0  0  0
   11.6117   -3.0614   25.6264 C   0  0  0  0  0  0  0  0  0  0  0  0
   10.3777   -3.9116   25.6927 C   0  0  0  0  0  0  0  0  0  0  0  0
    9.2552   -3.6811   24.7248 C   0  0  0  0  0  0  0  0  0  0  0  0
    9.3667   -2.6004   23.6906 N   0  0  0  0  0  0  0  0  0  0  0  0
    8.2442   -2.3699   22.7227 C   0  0  0  0  0  0  0  0  0  0  0  0
    8.3558   -1.2892   21.6884 O   0  0  0  0  0  0  0  0  0  0  0  0
    7.0102   -3.2201   22.7890 C   0  0  0  0  0  0  0  0  0  0  0  0
    6.1256   -3.1649   23.9991 C   0  0  0  0  0  0  0  0  0  0  0  0
    5.7235   -1.8393   24.5744 C   0  0  0  0  0  0  0  0  0  0  0  0
    4.8389   -1.7842   25.7846 N   0  0  0  0  0  0  0  0  0  0  0  0
    4.3564   -3.0547   26.4194 C   0  0  0  0  0  0  0  0  0  0  0  0
    4.7585   -4.3804   25.8441 C   0  0  0  0  0  0  0  0  0  0  0  0
    4.2760   -5.6508   26.4789 C   0  0  0  0  0  0  0  0  0  0  0  0
    4.6781   -6.9764   25.9036 C   0  0  0  0  0  0  0  0  0  0  0  0
    5.5628   -7.0316   24.6935 C   0  0  0  0  0  0  0  0  0  0  0  0
    6.0452   -5.7611   24.0586 C   0  0  0  0  0  0  0  0  0  0  0  0
    5.6431   -4.4355   24.6340 C   0  0  0  0  0  0  0  0  0  0  0  0
  2  1  1  0  0  0
  2  3  1  0  0  0
  3  4  1  0  0  0
  4  5  2  0  0  0
  5  6  1  0  0  0
  6  7  1  0  0  0
  7  8  1  0  0  0
  8  9  1  0  0  0
  9 10  1  0  0  0
 10 11  1  0  0  0
 11 12  2  0  0  0
 11 13  1  0  0  0
 13 14  1  0  0  0
 14 15  2  0  0  0
 15 16  1  0  0  0
 16 17  2  0  0  0
 17 18  1  0  0  0
 18 19  2  0  0  0
 19 20  1  0  0  0
 20 21  2  0  0  0
 21 22  1  0  0  0
 22 23  2  0  0  0
 10  2  1  0  0  0
 23 14  1  0  0  0
  7  3  2  0  0  0
 23 18  1  0  0  0
M  END
> <minimizedAffinity>
-6.65049

> <CNNscore>
0.5074237585

> <CNNaffinity>
5.6878104210

> <CNN_VS>
2.8861300945

> <CNNaffinity_variance>
0.2026674449

$$$$



 23 26  0  0  0  0  0  0  0  0999 V2000
    4.9243    0.5336   23.1145 C   0  0  0  0  0  0  0  0  0  0  0  0
    5.4842    0.3504   21.7351 C   0  0  0  0  0  0  0  0  0  0  0  0
    4.7619    0.9208   20.5506 C   0  0  0  0  0  0  0  0  0  0  0  0
    3.4882    1.7044   20.4336 C   0  0  0  0  0  0  0  0  0  0  0  0
    3.2610    2.0055   18.9818 C   0  0  0  0  0  0  0  0  0  0  0  0
    4.3942    1.4079   18.2015 S   0  0  0  0  0  0  0  0  0  0  0  0
    5.3219    0.7376   19.1711 C   0  0  0  0  0  0  0  0  0  0  0  0
    6.6040   -0.0160   18.9761 C   0  0  0  0  0  0  0  0  0  0  0  0
    7.3263   -0.5864   20.1606 C   0  0  0  0  0  0  0  0  0  0  0  0
    6.7665   -0.4032   21.5400 N   0  0  0  0  0  0  0  0  0  0  0  0
    7.4888   -0.9736   22.7245 C   0  0  0  0  0  0  0  0  0  0  0  0
    6.9288   -0.7904   24.1040 O   0  0  0  0  0  0  0  0  0  0  0  0
    8.7709   -1.7272   22.5295 C   0  0  0  0  0  0  0  0  0  0  0  0
    9.3168   -2.5780   23.6377 C   0  0  0  0  0  0  0  0  0  0  0  0
    8.5191   -3.7382   24.1550 C   0  0  0  0  0  0  0  0  0  0  0  0
    9.0650   -4.5890   25.2632 N   0  0  0  0  0  0  0  0  0  0  0  0
   10.4085   -4.2797   25.8541 C   0  0  0  0  0  0  0  0  0  0  0  0
   11.2063   -3.1195   25.3367 C   0  0  0  0  0  0  0  0  0  0  0  0
   12.5499   -2.8102   25.9275 C   0  0  0  0  0  0  0  0  0  0  0  0
   13.3476   -1.6501   25.4102 C   0  0  0  0  0  0  0  0  0  0  0  0
   12.8017   -0.7992   24.3020 C   0  0  0  0  0  0  0  0  0  0  0  0
   11.4581   -1.1085   23.7111 C   0  0  0  0  0  0  0  0  0  0  0  0
   10.6604   -2.2687   24.2285 C   0  0  0  0  0  0  0  0  0  0  0  0
  2  1  1  0  0  0
  2  3  1  0  0  0
  3  4  1  0  0  0
  4  5  2  0  0  0
  5  6  1  0  0  0
  6  7  1  0  0  0
  7  8  1  0  0  0
  8  9  1  0  0  0
  9 10  1  0  0  0
 10 11  1  0  0  0
 11 12  2  0  0  0
 11 13  1  0  0  0
 13 14  1  0  0  0
 14 15  2  0  0  0
 15 16  1  0  0  0
 16 17  2  0  0  0
 17 18  1  0  0  0
 18 19  2  0  0  0
 19 20  1  0  0  0
 20 21  2  0  0  0
 21 22  1  0  0  0
 22 23  2  0  0  0
 10  2  1  0  0  0
 23 14  1  0  0  0
  7  3  2  0  0  0
 23 18  1  0  0  0
M  END
> <minimizedAffinity>
-7.91458

> <CNNscore>
0.4922721982

> <CNNaffinity>
5.4564676285

> <CNN_VS>
2.6860673428

> <CNNaffinity_variance>
0.1174512655

$$$$



 23 26  0  0  0  0  0  0  0  0999 V2000
   11.1191    0.1804   23.1826 C   0  0  0  0  0  0  0  0  0  0  0  0
   10.6153   -1.0855   23.8101 C   0  0  0  0  0  0  0  0  0  0  0  0
   11.4671   -1.8221   24.8009 C   0  0  0  0  0  0  0  0  0  0  0  0
   12.8349   -1.5449   25.3506 C   0  0  0  0  0  0  0  0  0  0  0  0
   13.1763   -2.6394   26.3178 C   0  0  0  0  0  0  0  0  0  0  0  0
   12.0195   -3.5931   26.3658 S   0  0  0  0  0  0  0  0  0  0  0  0
   10.9631   -3.0881   25.4283 C   0  0  0  0  0  0  0  0  0  0  0  0
    9.6075   -3.6172   25.0649 C   0  0  0  0  0  0  0  0  0  0  0  0
    8.7557   -2.8806   24.0740 C   0  0  0  0  0  0  0  0  0  0  0  0
    9.2595   -1.6147   23.4466 N   0  0  0  0  0  0  0  0  0  0  0  0
    8.4077   -0.8780   22.4558 C   0  0  0  0  0  0  0  0  0  0  0  0
    8.9117    0.3879   21.8284 O   0  0  0  0  0  0  0  0  0  0  0  0
    7.0521   -1.4072   22.0924 C   0  0  0  0  0  0  0  0  0  0  0  0
    5.8882   -0.4687   21.9716 C   0  0  0  0  0  0  0  0  0  0  0  0
    5.1297   -0.0530   23.1971 C   0  0  0  0  0  0  0  0  0  0  0  0
    3.9659    0.8856   23.0763 N   0  0  0  0  0  0  0  0  0  0  0  0
    3.5605    1.4084   21.7301 C   0  0  0  0  0  0  0  0  0  0  0  0
    4.3191    0.9927   20.5046 C   0  0  0  0  0  0  0  0  0  0  0  0
    3.9137    1.5155   19.1584 C   0  0  0  0  0  0  0  0  0  0  0  0
    4.6723    1.0998   17.9329 C   0  0  0  0  0  0  0  0  0  0  0  0
    5.8361    0.1613   18.0537 C   0  0  0  0  0  0  0  0  0  0  0  0
    6.2414   -0.3616   19.3999 C   0  0  0  0  0  0  0  0  0  0  0  0
    5.4829    0.0542   20.6253 C   0  0  0  0  0  0  0  0  0  0  0  0
  2  1  1  0  0  0
  2  3  1  0  0  0
  3  4  1  0  0  0
  4  5  2  0  0  0
  5  6  1  0  0  0
  6  7  1  0  0  0
  7  8  1  0  0  0
  8  9  1  0  0  0
  9 10  1  0  0  0
 10 11  1  0  0  0
 11 12  2  0  0  0
 11 13  1  0  0  0
 13 14  1  0  0  0
 14 15  2  0  0  0
 15 16  1  0  0  0
 16 17  2  0  0  0
 17 18  1  0  0  0
 18 19  2  0  0  0
 19 20  1  0  0  0
 20 21  2  0  0  0
 21 22  1  0  0  0
 22 23  2  0  0  0
 10  2  1  0  0  0
 23 14  1  0  0  0
  7  3  2  0  0  0
 23 18  1  0  0  0
M  END
> <minimizedAffinity>
-7.49327

> <CNNscore>
0.4737210572

> <CNNaffinity>
5.4128255844

> <CNN_VS>
2.5641694069

> <CNNaffinity_variance>
0.1669310778

$$$$



 23 26  0  0  0  0  0  0  0  0999 V2000
    4.8772    1.1082   17.9501 C   0  0  0  0  0  0  0  0  0  0  0  0
    4.4999    1.1543   19.4011 C   0  0  0  0  0  0  0  0  0  0  0  0
    3.2087    1.7923   19.8204 C   0  0  0  0  0  0  0  0  0  0  0  0
    2.1146    2.4535   19.0358 C   0  0  0  0  0  0  0  0  0  0  0  0
    1.0611    2.9082   20.0018 C   0  0  0  0  0  0  0  0  0  0  0  0
    1.5041    2.5280   21.3836 S   0  0  0  0  0  0  0  0  0  0  0  0
    2.8314    1.8384   21.2715 C   0  0  0  0  0  0  0  0  0  0  0  0
    3.7453    1.2464   22.3032 C   0  0  0  0  0  0  0  0  0  0  0  0
    5.0364    0.6084   21.8839 C   0  0  0  0  0  0  0  0  0  0  0  0
    5.4137    0.5623   20.4329 N   0  0  0  0  0  0  0  0  0  0  0  0
    6.7049   -0.0757   20.0136 C   0  0  0  0  0  0  0  0  0  0  0  0
    7.0822   -0.1218   18.5625 O   0  0  0  0  0  0  0  0  0  0  0  0
    7.6187   -0.6677   21.0453 C   0  0  0  0  0  0  0  0  0  0  0  0
    8.5979    0.2072   21.7705 C   0  0  0  0  0  0  0  0  0  0  0  0
    8.5656    1.6936   21.5721 C   0  0  0  0  0  0  0  0  0  0  0  0
    9.5447    2.5685   22.2972 N   0  0  0  0  0  0  0  0  0  0  0  0
   10.5562    1.9569   23.2207 C   0  0  0  0  0  0  0  0  0  0  0  0
   10.5886    0.4704   23.4191 C   0  0  0  0  0  0  0  0  0  0  0  0
   11.6000   -0.1411   24.3426 C   0  0  0  0  0  0  0  0  0  0  0  0
   11.6323   -1.6276   24.5410 C   0  0  0  0  0  0  0  0  0  0  0  0
   10.6532   -2.5025   23.8159 C   0  0  0  0  0  0  0  0  0  0  0  0
    9.6417   -1.8909   22.8924 C   0  0  0  0  0  0  0  0  0  0  0  0
    9.6094   -0.4045   22.6940 C   0  0  0  0  0  0  0  0  0  0  0  0
  2  1  1  0  0  0
  2  3  1  0  0  0
  3  4  1  0  0  0
  4  5  2  0  0  0
  5  6  1  0  0  0
  6  7  1  0  0  0
  7  8  1  0  0  0
  8  9  1  0  0  0
  9 10  1  0  0  0
 10 11  1  0  0  0
 11 12  2  0  0  0
 11 13  1  0  0  0
 13 14  1  0  0  0
 14 15  2  0  0  0
 15 16  1  0  0  0
 16 17  2  0  0  0
 17 18  1  0  0  0
 18 19  2  0  0  0
 19 20  1  0  0  0
 20 21  2  0  0  0
 21 22  1  0  0  0
 22 23  2  0  0  0
 10  2  1  0  0  0
 23 14  1  0  0  0
  7  3  2  0  0  0
 23 18  1  0  0  0
M  END
> <minimizedAffinity>
-7.43154

> <CNNscore>
0.4723726213

> <CNNaffinity>
5.3323807716

> <CNN_VS>
2.5188705921

> <CNNaffinity_variance>
0.1152587757

$$$$



 23 26  0  0  0  0  0  0  0  0999 V2000
    6.3155    1.8569   22.9231 C   0  0  0  0  0  0  0  0  0  0  0  0
    6.4208    1.1547   21.6019 C   0  0  0  0  0  0  0  0  0  0  0  0
    5.4347    1.4552   20.5122 C   0  0  0  0  0  0  0  0  0  0  0  0
    4.2616    2.3878   20.4493 C   0  0  0  0  0  0  0  0  0  0  0  0
    3.6418    2.2619   19.0891 C   0  0  0  0  0  0  0  0  0  0  0  0
    4.4319    1.2515   18.3114 S   0  0  0  0  0  0  0  0  0  0  0  0
    5.5400    0.7529   19.1908 C   0  0  0  0  0  0  0  0  0  0  0  0
    6.6313   -0.2498   18.9593 C   0  0  0  0  0  0  0  0  0  0  0  0
    7.6173   -0.5503   20.0490 C   0  0  0  0  0  0  0  0  0  0  0  0
    7.5121    0.1519   21.3702 N   0  0  0  0  0  0  0  0  0  0  0  0
    8.4981   -0.1486   22.4599 C   0  0  0  0  0  0  0  0  0  0  0  0
    8.3928    0.5537   23.7813 O   0  0  0  0  0  0  0  0  0  0  0  0
    9.5894   -1.1513   22.2284 C   0  0  0  0  0  0  0  0  0  0  0  0
   10.7436   -1.2375   23.1825 C   0  0  0  0  0  0  0  0  0  0  0  0
   11.9052   -0.2991   23.0412 C   0  0  0  0  0  0  0  0  0  0  0  0
   13.0594   -0.3852   23.9954 N   0  0  0  0  0  0  0  0  0  0  0  0
   13.0520   -1.4098   25.0908 C   0  0  0  0  0  0  0  0  0  0  0  0
   11.8903   -2.3483   25.2322 C   0  0  0  0  0  0  0  0  0  0  0  0
   11.8829   -3.3729   26.3277 C   0  0  0  0  0  0  0  0  0  0  0  0
   10.7213   -4.3113   26.4690 C   0  0  0  0  0  0  0  0  0  0  0  0
    9.5671   -4.2252   25.5148 C   0  0  0  0  0  0  0  0  0  0  0  0
    9.5745   -3.2006   24.4193 C   0  0  0  0  0  0  0  0  0  0  0  0
   10.7361   -2.2622   24.2780 C   0  0  0  0  0  0  0  0  0  0  0  0
  2  1  1  0  0  0
  2  3  1  0  0  0
  3  4  1  0  0  0
  4  5  2  0  0  0
  5  6  1  0  0  0
  6  7  1  0  0  0
  7  8  1  0  0  0
  8  9  1  0  0  0
  9 10  1  0  0  0
 10 11  1  0  0  0
 11 12  2  0  0  0
 11 13  1  0  0  0
 13 14  1  0  0  0
 14 15  2  0  0  0
 15 16  1  0  0  0
 16 17  2  0  0  0
 17 18  1  0  0  0
 18 19  2  0  0  0
 19 20  1  0  0  0
 20 21  2  0  0  0
 21 22  1  0  0  0
 22 23  2  0  0  0
 10  2  1  0  0  0
 23 14  1  0  0  0
  7  3  2  0  0  0
 23 18  1  0  0  0
M  END
> <minimizedAffinity>
-8.01917

> <CNNscore>
0.4707323313

> <CNNaffinity>
5.5002870560

> <CNN_VS>
2.5891630650

> <CNNaffinity_variance>
0.1176146418

$$$$
