


 37 41  0  0  0  0  0  0  0  0999 V2000
    6.3450   -1.1109   21.9301 N   0  0  0  0  0  0  0  0  0  0  0  0
    7.8433   -1.1412   21.8641 C   0  0  0  0  0  0  0  0  0  0  0  0
    8.5653   -0.3252   20.8332 O   0  0  0  0  0  0  0  0  0  0  0  0
    2.6336    2.4063   21.0053 N   0  0  0  0  0  0  0  0  0  0  0  0
    2.3304    2.4722   22.4729 C   0  0  0  0  0  0  0  0  0  0  0  0
    3.1066    1.6258   23.4378 C   0  0  0  0  0  0  0  0  0  0  0  0
    4.1861    0.7136   22.9353 C   0  0  0  0  0  0  0  0  0  0  0  0
    4.4893    0.6477   21.4677 C   0  0  0  0  0  0  0  0  0  0  0  0
    5.5688   -0.2645   20.9651 C   0  0  0  0  0  0  0  0  0  0  0  0
    5.8720   -0.3304   19.4976 C   0  0  0  0  0  0  0  0  0  0  0  0
    5.0957    0.5160   18.5326 C   0  0  0  0  0  0  0  0  0  0  0  0
    4.0163    1.4282   19.0352 C   0  0  0  0  0  0  0  0  0  0  0  0
    3.7130    1.4941   20.5028 C   0  0  0  0  0  0  0  0  0  0  0  0
    3.1431    1.8508   21.6387 H   0  0  0  0  0  0  0  0  0  0  0  0
    1.8574    3.2526   20.0404 C   0  0  0  0  0  0  0  0  0  0  0  0
    1.0422    2.6039   18.9612 O   0  0  0  0  0  0  0  0  0  0  0  0
    0.6925    5.5602   19.7792 C   0  0  0  0  0  0  0  0  0  0  0  0
    1.8963    4.7477   20.1545 C   0  0  0  0  0  0  0  0  0  0  0  0
    5.6230   -1.9269   22.9610 C   0  0  0  0  0  0  0  0  0  0  0  0
    5.8606   -3.4054   23.0483 C   0  0  0  0  0  0  0  0  0  0  0  0
    6.3157   -4.0168   24.3403 C   0  0  0  0  0  0  0  0  0  0  0  0
    6.5532   -5.4953   24.4276 C   0  0  0  0  0  0  0  0  0  0  0  0
    6.3357   -6.3623   23.2230 C   0  0  0  0  0  0  0  0  0  0  0  0
    5.8806   -5.7509   21.9311 C   0  0  0  0  0  0  0  0  0  0  0  0
    5.6631   -6.6179   20.7265 Cl  0  0  0  0  0  0  0  0  0  0  0  0
    5.6431   -4.2724   21.8438 C   0  0  0  0  0  0  0  0  0  0  0  0
    8.6195   -1.9875   22.8290 C   0  0  0  0  0  0  0  0  0  0  0  0
    9.9687   -1.5368   23.3049 C   0  0  0  0  0  0  0  0  0  0  0  0
   10.6360   -0.3580   22.6606 C   0  0  0  0  0  0  0  0  0  0  0  0
   11.9852    0.0928   23.1365 N   0  0  0  0  0  0  0  0  0  0  0  0
   12.6671   -0.6353   24.2568 C   0  0  0  0  0  0  0  0  0  0  0  0
   11.9998   -1.8140   24.9012 C   0  0  0  0  0  0  0  0  0  0  0  0
   12.6816   -2.5420   26.0214 C   0  0  0  0  0  0  0  0  0  0  0  0
   12.0143   -3.7208   26.6658 C   0  0  0  0  0  0  0  0  0  0  0  0
   10.6652   -4.1716   26.1899 C   0  0  0  0  0  0  0  0  0  0  0  0
    9.9832   -3.4435   25.0696 C   0  0  0  0  0  0  0  0  0  0  0  0
   10.6505   -2.2648   24.4252 C   0  0  0  0  0  0  0  0  0  0  0  0
 17 18  1  0  0  0
 18 15  1  0  0  0
 15 16  2  0  0  0
  4 15  1  0  0  0
  4  5  1  0  0  0
  5  6  1  0  0  0
  6  7  1  0  0  0
  7  8  1  0  0  0
  8  9  2  0  0  0
  9  1  1  0  0  0
  1 19  1  0  0  0
 19 20  1  0  0  0
 20 21  2  0  0  0
 21 22  1  0  0  0
 22 23  2  0  0  0
 23 24  1  0  0  0
 24 25  1  0  0  0
 24 26  2  0  0  0
  1  2  1  0  0  0
  2  3  2  0  0  0
  2 27  1  0  0  0
 27 28  1  0  0  0
 28 29  2  0  0  0
 29 30  1  0  0  0
 30 31  2  0  0  0
 31 32  1  0  0  0
 32 33  2  0  0  0
 33 34  1  0  0  0
 34 35  2  0  0  0
 35 36  1  0  0  0
 36 37  2  0  0  0
  9 10  1  0  0  0
 10 11  2  0  0  0
 11 12  1  0  0  0
 12 13  2  0  0  0
 13  4  1  0  0  0
 13  8  1  0  0  0
 26 20  1  0  0  0
 37 28  1  0  0  0
 37 32  1  0  0  0
  4 14  1  0  0  0
M  CHG 1   4   1
M  END
> <minimizedAffinity>
-8.43593

> <CNNscore>
0.4687003493

> <CNNaffinity>
6.6015748978

> <CNN_VS>
3.0941605568

> <CNNaffinity_variance>
0.1847867072

$$$$



 37 41  0  0  0  0  0  0  0  0999 V2000
    6.8690   -2.2595   23.3832 N   0  0  0  0  0  0  0  0  0  0  0  0
    6.2624   -1.7580   22.1062 C   0  0  0  0  0  0  0  0  0  0  0  0
    5.2548   -2.5948   21.3752 O   0  0  0  0  0  0  0  0  0  0  0  0
    4.1000   -5.1066   26.7338 N   0  0  0  0  0  0  0  0  0  0  0  0
    3.5176   -3.8535   27.3173 C   0  0  0  0  0  0  0  0  0  0  0  0
    3.9187   -2.5151   26.7714 C   0  0  0  0  0  0  0  0  0  0  0  0
    4.9021   -2.4299   25.6420 C   0  0  0  0  0  0  0  0  0  0  0  0
    5.4845   -3.6830   25.0585 C   0  0  0  0  0  0  0  0  0  0  0  0
    6.4680   -3.5979   23.9291 C   0  0  0  0  0  0  0  0  0  0  0  0
    7.0503   -4.8510   23.3456 C   0  0  0  0  0  0  0  0  0  0  0  0
    6.6492   -6.1893   23.8915 C   0  0  0  0  0  0  0  0  0  0  0  0
    5.6658   -6.2745   25.0209 C   0  0  0  0  0  0  0  0  0  0  0  0
    5.0834   -5.0214   25.6044 C   0  0  0  0  0  0  0  0  0  0  0  0
    4.3632   -4.2282   26.3755 H   0  0  0  0  0  0  0  0  0  0  0  0
    3.6989   -6.4449   27.2797 C   0  0  0  0  0  0  0  0  0  0  0  0
    4.4694   -7.0539   28.4135 O   0  0  0  0  0  0  0  0  0  0  0  0
    1.1432   -6.9059   27.2038 C   0  0  0  0  0  0  0  0  0  0  0  0
    2.5274   -7.1742   26.6919 C   0  0  0  0  0  0  0  0  0  0  0  0
    7.8767   -1.4227   24.1141 C   0  0  0  0  0  0  0  0  0  0  0  0
    9.0659   -2.0723   24.7574 C   0  0  0  0  0  0  0  0  0  0  0  0
    8.8716   -3.0502   25.8781 C   0  0  0  0  0  0  0  0  0  0  0  0
   10.0609   -3.6998   26.5213 C   0  0  0  0  0  0  0  0  0  0  0  0
   11.4444   -3.3713   26.0439 C   0  0  0  0  0  0  0  0  0  0  0  0
   11.6387   -2.3934   24.9232 C   0  0  0  0  0  0  0  0  0  0  0  0
   13.0223   -2.0649   24.4458 Cl  0  0  0  0  0  0  0  0  0  0  0  0
   10.4494   -1.7439   24.2800 C   0  0  0  0  0  0  0  0  0  0  0  0
    6.6635   -0.4197   21.5603 C   0  0  0  0  0  0  0  0  0  0  0  0
    6.0346    0.0952   20.2996 C   0  0  0  0  0  0  0  0  0  0  0  0
    6.6775   -0.1825   18.9731 C   0  0  0  0  0  0  0  0  0  0  0  0
    6.0486    0.3323   17.7124 N   0  0  0  0  0  0  0  0  0  0  0  0
    4.7767    1.1249   17.7782 C   0  0  0  0  0  0  0  0  0  0  0  0
    4.1338    1.4026   19.1047 C   0  0  0  0  0  0  0  0  0  0  0  0
    2.8620    2.1951   19.1705 C   0  0  0  0  0  0  0  0  0  0  0  0
    2.2191    2.4728   20.4970 C   0  0  0  0  0  0  0  0  0  0  0  0
    2.8480    1.9580   21.7577 C   0  0  0  0  0  0  0  0  0  0  0  0
    4.1199    1.1654   21.6919 C   0  0  0  0  0  0  0  0  0  0  0  0
    4.7628    0.8877   20.3654 C   0  0  0  0  0  0  0  0  0  0  0  0
 17 18  1  0  0  0
 18 15  1  0  0  0
 15 16  2  0  0  0
  4 15  1  0  0  0
  4  5  1  0  0  0
  5  6  1  0  0  0
  6  7  1  0  0  0
  7  8  1  0  0  0
  8  9  2  0  0  0
  9  1  1  0  0  0
  1 19  1  0  0  0
 19 20  1  0  0  0
 20 21  2  0  0  0
 21 22  1  0  0  0
 22 23  2  0  0  0
 23 24  1  0  0  0
 24 25  1  0  0  0
 24 26  2  0  0  0
  1  2  1  0  0  0
  2  3  2  0  0  0
  2 27  1  0  0  0
 27 28  1  0  0  0
 28 29  2  0  0  0
 29 30  1  0  0  0
 30 31  2  0  0  0
 31 32  1  0  0  0
 32 33  2  0  0  0
 33 34  1  0  0  0
 34 35  2  0  0  0
 35 36  1  0  0  0
 36 37  2  0  0  0
  9 10  1  0  0  0
 10 11  2  0  0  0
 11 12  1  0  0  0
 12 13  2  0  0  0
 13  4  1  0  0  0
 13  8  1  0  0  0
 26 20  1  0  0  0
 37 28  1  0  0  0
 37 32  1  0  0  0
  4 14  1  0  0  0
M  CHG 1   4   1
M  END
> <minimizedAffinity>
-7.73904

> <CNNscore>
0.4292188883

> <CNNaffinity>
6.5043883324

> <CNN_VS>
2.7918062210

> <CNNaffinity_variance>
0.1237203628

$$$$



 37 41  0  0  0  0  0  0  0  0999 V2000
    7.8963   -0.4173   23.7700 N   0  0  0  0  0  0  0  0  0  0  0  0
    7.0252   -0.4015   22.5488 C   0  0  0  0  0  0  0  0  0  0  0  0
    5.7585   -1.2044   22.5208 O   0  0  0  0  0  0  0  0  0  0  0  0
    5.2529   -0.9044   28.2169 N   0  0  0  0  0  0  0  0  0  0  0  0
    4.7227    0.4893   28.0544 C   0  0  0  0  0  0  0  0  0  0  0  0
    5.1184    1.3079   26.8614 C   0  0  0  0  0  0  0  0  0  0  0  0
    6.0443    0.7329   25.8309 C   0  0  0  0  0  0  0  0  0  0  0  0
    6.5746   -0.6608   25.9935 C   0  0  0  0  0  0  0  0  0  0  0  0
    7.5006   -1.2359   24.9630 C   0  0  0  0  0  0  0  0  0  0  0  0
    8.0308   -2.6296   25.1255 C   0  0  0  0  0  0  0  0  0  0  0  0
    7.6351   -3.4482   26.3185 C   0  0  0  0  0  0  0  0  0  0  0  0
    6.7092   -2.8732   27.3490 C   0  0  0  0  0  0  0  0  0  0  0  0
    6.1789   -1.4794   27.1865 C   0  0  0  0  0  0  0  0  0  0  0  0
    5.5127   -0.3671   27.4339 H   0  0  0  0  0  0  0  0  0  0  0  0
    4.8573   -1.7230   29.4100 C   0  0  0  0  0  0  0  0  0  0  0  0
    3.6377   -2.5943   29.3506 O   0  0  0  0  0  0  0  0  0  0  0  0
    6.0705   -0.3459   31.2488 C   0  0  0  0  0  0  0  0  0  0  0  0
    5.6811   -1.6704   30.6623 C   0  0  0  0  0  0  0  0  0  0  0  0
    9.1630    0.3856   23.7980 C   0  0  0  0  0  0  0  0  0  0  0  0
   10.4856   -0.2928   23.5972 C   0  0  0  0  0  0  0  0  0  0  0  0
   10.9600   -0.6157   22.2112 C   0  0  0  0  0  0  0  0  0  0  0  0
   12.2827   -1.2942   22.0104 C   0  0  0  0  0  0  0  0  0  0  0  0
   13.1308   -1.6497   23.1954 C   0  0  0  0  0  0  0  0  0  0  0  0
   12.6564   -1.3268   24.5812 C   0  0  0  0  0  0  0  0  0  0  0  0
   13.5046   -1.6824   25.7663 Cl  0  0  0  0  0  0  0  0  0  0  0  0
   11.3338   -0.6484   24.7821 C   0  0  0  0  0  0  0  0  0  0  0  0
    7.4209    0.4171   21.3558 C   0  0  0  0  0  0  0  0  0  0  0  0
    6.5066    0.5051   20.1700 C   0  0  0  0  0  0  0  0  0  0  0  0
    6.7563   -0.3526   18.9651 C   0  0  0  0  0  0  0  0  0  0  0  0
    5.8420   -0.2646   17.7792 N   0  0  0  0  0  0  0  0  0  0  0  0
    4.6779    0.6813   17.7983 C   0  0  0  0  0  0  0  0  0  0  0  0
    4.4282    1.5390   19.0032 C   0  0  0  0  0  0  0  0  0  0  0  0
    3.2641    2.4848   19.0223 C   0  0  0  0  0  0  0  0  0  0  0  0
    3.0144    3.3426   20.2273 C   0  0  0  0  0  0  0  0  0  0  0  0
    3.9287    3.2546   21.4131 C   0  0  0  0  0  0  0  0  0  0  0  0
    5.0928    2.3087   21.3940 C   0  0  0  0  0  0  0  0  0  0  0  0
    5.3425    1.4509   20.1891 C   0  0  0  0  0  0  0  0  0  0  0  0
 17 18  1  0  0  0
 18 15  1  0  0  0
 15 16  2  0  0  0
  4 15  1  0  0  0
  4  5  1  0  0  0
  5  6  1  0  0  0
  6  7  1  0  0  0
  7  8  1  0  0  0
  8  9  2  0  0  0
  9  1  1  0  0  0
  1 19  1  0  0  0
 19 20  1  0  0  0
 20 21  2  0  0  0
 21 22  1  0  0  0
 22 23  2  0  0  0
 23 24  1  0  0  0
 24 25  1  0  0  0
 24 26  2  0  0  0
  1  2  1  0  0  0
  2  3  2  0  0  0
  2 27  1  0  0  0
 27 28  1  0  0  0
 28 29  2  0  0  0
 29 30  1  0  0  0
 30 31  2  0  0  0
 31 32  1  0  0  0
 32 33  2  0  0  0
 33 34  1  0  0  0
 34 35  2  0  0  0
 35 36  1  0  0  0
 36 37  2  0  0  0
  9 10  1  0  0  0
 10 11  2  0  0  0
 11 12  1  0  0  0
 12 13  2  0  0  0
 13  4  1  0  0  0
 13  8  1  0  0  0
 26 20  1  0  0  0
 37 28  1  0  0  0
 37 32  1  0  0  0
  4 14  1  0  0  0
M  CHG 1   4   1
M  END
> <minimizedAffinity>
-7.77669

> <CNNscore>
0.4029591084

> <CNNaffinity>
6.4099831581

> <CNN_VS>
2.5829610825

> <CNNaffinity_variance>
0.2743572593

$$$$



 37 41  0  0  0  0  0  0  0  0999 V2000
    8.2202   -0.9955   24.3668 N   0  0  0  0  0  0  0  0  0  0  0  0
    7.9485   -1.9698   23.2591 C   0  0  0  0  0  0  0  0  0  0  0  0
    7.6342   -1.4694   21.8804 O   0  0  0  0  0  0  0  0  0  0  0  0
   10.6296    3.3993   22.9955 N   0  0  0  0  0  0  0  0  0  0  0  0
   11.9194    2.6473   22.8518 C   0  0  0  0  0  0  0  0  0  0  0  0
   11.9620    1.1726   23.1228 C   0  0  0  0  0  0  0  0  0  0  0  0
   10.7148    0.4499   23.5375 C   0  0  0  0  0  0  0  0  0  0  0  0
    9.4249    1.2019   23.6811 C   0  0  0  0  0  0  0  0  0  0  0  0
    8.1776    0.4792   24.0958 C   0  0  0  0  0  0  0  0  0  0  0  0
    6.8877    1.2312   24.2395 C   0  0  0  0  0  0  0  0  0  0  0  0
    6.8451    2.7059   23.9685 C   0  0  0  0  0  0  0  0  0  0  0  0
    8.0923    3.4286   23.5538 C   0  0  0  0  0  0  0  0  0  0  0  0
    9.3823    2.6766   23.4101 C   0  0  0  0  0  0  0  0  0  0  0  0
   10.6575    2.4314   23.1733 H   0  0  0  0  0  0  0  0  0  0  0  0
   10.5869    4.8740   22.7245 C   0  0  0  0  0  0  0  0  0  0  0  0
    9.3810    5.6744   23.1182 O   0  0  0  0  0  0  0  0  0  0  0  0
   11.8176    7.0458   22.0043 C   0  0  0  0  0  0  0  0  0  0  0  0
   11.7503    5.5483   22.0597 C   0  0  0  0  0  0  0  0  0  0  0  0
    8.5345   -1.4959   25.7455 C   0  0  0  0  0  0  0  0  0  0  0  0
    9.8025   -2.2571   25.9962 C   0  0  0  0  0  0  0  0  0  0  0  0
    9.7431   -3.6613   26.5204 C   0  0  0  0  0  0  0  0  0  0  0  0
   11.0111   -4.4224   26.7711 C   0  0  0  0  0  0  0  0  0  0  0  0
   12.3385   -3.7794   26.4975 C   0  0  0  0  0  0  0  0  0  0  0  0
   12.3977   -2.3752   25.9733 C   0  0  0  0  0  0  0  0  0  0  0  0
   13.7250   -1.7322   25.6997 Cl  0  0  0  0  0  0  0  0  0  0  0  0
   11.1297   -1.6141   25.7226 C   0  0  0  0  0  0  0  0  0  0  0  0
    7.9911   -3.4445   23.5301 C   0  0  0  0  0  0  0  0  0  0  0  0
    6.7578   -4.2774   23.3427 C   0  0  0  0  0  0  0  0  0  0  0  0
    6.4520   -4.8734   22.0006 C   0  0  0  0  0  0  0  0  0  0  0  0
    5.2187   -5.7063   21.8132 N   0  0  0  0  0  0  0  0  0  0  0  0
    4.2911   -5.9433   22.9680 C   0  0  0  0  0  0  0  0  0  0  0  0
    4.5969   -5.3474   24.3102 C   0  0  0  0  0  0  0  0  0  0  0  0
    3.6694   -5.5844   25.4649 C   0  0  0  0  0  0  0  0  0  0  0  0
    3.9752   -4.9884   26.8070 C   0  0  0  0  0  0  0  0  0  0  0  0
    5.2085   -4.1555   26.9944 C   0  0  0  0  0  0  0  0  0  0  0  0
    6.1361   -3.9185   25.8396 C   0  0  0  0  0  0  0  0  0  0  0  0
    5.8303   -4.5144   24.4975 C   0  0  0  0  0  0  0  0  0  0  0  0
 17 18  1  0  0  0
 18 15  1  0  0  0
 15 16  2  0  0  0
  4 15  1  0  0  0
  4  5  1  0  0  0
  5  6  1  0  0  0
  6  7  1  0  0  0
  7  8  1  0  0  0
  8  9  2  0  0  0
  9  1  1  0  0  0
  1 19  1  0  0  0
 19 20  1  0  0  0
 20 21  2  0  0  0
 21 22  1  0  0  0
 22 23  2  0  0  0
 23 24  1  0  0  0
 24 25  1  0  0  0
 24 26  2  0  0  0
  1  2  1  0  0  0
  2  3  2  0  0  0
  2 27  1  0  0  0
 27 28  1  0  0  0
 28 29  2  0  0  0
 29 30  1  0  0  0
 30 31  2  0  0  0
 31 32  1  0  0  0
 32 33  2  0  0  0
 33 34  1  0  0  0
 34 35  2  0  0  0
 35 36  1  0  0  0
 36 37  2  0  0  0
  9 10  1  0  0  0
 10 11  2  0  0  0
 11 12  1  0  0  0
 12 13  2  0  0  0
 13  4  1  0  0  0
 13  8  1  0  0  0
 26 20  1  0  0  0
 37 28  1  0  0  0
 37 32  1  0  0  0
  4 14  1  0  0  0
M  CHG 1   4   1
M  END
> <minimizedAffinity>
-8.15525

> <CNNscore>
0.3579849303

> <CNNaffinity>
6.6685905457

> <CNN_VS>
2.3872549534

> <CNNaffinity_variance>
0.2750706673

$$$$



 37 41  0  0  0  0  0  0  0  0999 V2000
    6.3197   -1.5961   22.5013 N   0  0  0  0  0  0  0  0  0  0  0  0
    7.6639   -1.3014   23.0985 C   0  0  0  0  0  0  0  0  0  0  0  0
    7.9646    0.0690   23.6291 O   0  0  0  0  0  0  0  0  0  0  0  0
    3.5560    1.8273   19.7368 N   0  0  0  0  0  0  0  0  0  0  0  0
    4.2606    1.3875   18.4878 C   0  0  0  0  0  0  0  0  0  0  0  0
    5.3039    0.3118   18.5544 C   0  0  0  0  0  0  0  0  0  0  0  0
    5.6425   -0.3242   19.8700 C   0  0  0  0  0  0  0  0  0  0  0  0
    4.9379    0.1156   21.1190 C   0  0  0  0  0  0  0  0  0  0  0  0
    5.2765   -0.5204   22.4347 C   0  0  0  0  0  0  0  0  0  0  0  0
    4.5719   -0.0806   23.6837 C   0  0  0  0  0  0  0  0  0  0  0  0
    3.5286    0.9951   23.6171 C   0  0  0  0  0  0  0  0  0  0  0  0
    3.1900    1.6311   22.3014 C   0  0  0  0  0  0  0  0  0  0  0  0
    3.8946    1.1913   21.0524 C   0  0  0  0  0  0  0  0  0  0  0  0
    4.2407    1.1212   19.7805 H   0  0  0  0  0  0  0  0  0  0  0  0
    2.5127    2.9030   19.6701 C   0  0  0  0  0  0  0  0  0  0  0  0
    1.2961    2.7158   18.8130 O   0  0  0  0  0  0  0  0  0  0  0  0
    1.5548    5.1450   20.5677 C   0  0  0  0  0  0  0  0  0  0  0  0
    2.6861    4.1659   20.4607 C   0  0  0  0  0  0  0  0  0  0  0  0
    6.0190   -2.9664   21.9707 C   0  0  0  0  0  0  0  0  0  0  0  0
    5.9898   -4.1417   22.9023 C   0  0  0  0  0  0  0  0  0  0  0  0
    6.5245   -5.4690   22.4523 C   0  0  0  0  0  0  0  0  0  0  0  0
    6.4953   -6.6442   23.3839 C   0  0  0  0  0  0  0  0  0  0  0  0
    5.9314   -6.4922   24.7656 C   0  0  0  0  0  0  0  0  0  0  0  0
    5.3967   -5.1650   25.2155 C   0  0  0  0  0  0  0  0  0  0  0  0
    4.8327   -5.0129   26.5972 Cl  0  0  0  0  0  0  0  0  0  0  0  0
    5.4259   -3.9897   24.2839 C   0  0  0  0  0  0  0  0  0  0  0  0
    8.7071   -2.3771   23.1651 C   0  0  0  0  0  0  0  0  0  0  0  0
   10.1620   -2.0145   23.1234 C   0  0  0  0  0  0  0  0  0  0  0  0
   10.7180   -1.2789   21.9403 C   0  0  0  0  0  0  0  0  0  0  0  0
   12.1729   -0.9163   21.8987 N   0  0  0  0  0  0  0  0  0  0  0  0
   13.0719   -1.2893   23.0401 C   0  0  0  0  0  0  0  0  0  0  0  0
   12.5158   -2.0249   24.2232 C   0  0  0  0  0  0  0  0  0  0  0  0
   13.4147   -2.3979   25.3646 C   0  0  0  0  0  0  0  0  0  0  0  0
   12.8586   -3.1335   26.5477 C   0  0  0  0  0  0  0  0  0  0  0  0
   11.4037   -3.4961   26.5894 C   0  0  0  0  0  0  0  0  0  0  0  0
   10.5048   -3.1231   25.4480 C   0  0  0  0  0  0  0  0  0  0  0  0
   11.0608   -2.3875   24.2649 C   0  0  0  0  0  0  0  0  0  0  0  0
 17 18  1  0  0  0
 18 15  1  0  0  0
 15 16  2  0  0  0
  4 15  1  0  0  0
  4  5  1  0  0  0
  5  6  1  0  0  0
  6  7  1  0  0  0
  7  8  1  0  0  0
  8  9  2  0  0  0
  9  1  1  0  0  0
  1 19  1  0  0  0
 19 20  1  0  0  0
 20 21  2  0  0  0
 21 22  1  0  0  0
 22 23  2  0  0  0
 23 24  1  0  0  0
 24 25  1  0  0  0
 24 26  2  0  0  0
  1  2  1  0  0  0
  2  3  2  0  0  0
  2 27  1  0  0  0
 27 28  1  0  0  0
 28 29  2  0  0  0
 29 30  1  0  0  0
 30 31  2  0  0  0
 31 32  1  0  0  0
 32 33  2  0  0  0
 33 34  1  0  0  0
 34 35  2  0  0  0
 35 36  1  0  0  0
 36 37  2  0  0  0
  9 10  1  0  0  0
 10 11  2  0  0  0
 11 12  1  0  0  0
 12 13  2  0  0  0
 13  4  1  0  0  0
 13  8  1  0  0  0
 26 20  1  0  0  0
 37 28  1  0  0  0
 37 32  1  0  0  0
  4 14  1  0  0  0
M  CHG 1   4   1
M  END
> <minimizedAffinity>
-8.50836

> <CNNscore>
0.3565355241

> <CNNaffinity>
6.5217728615

> <CNN_VS>
2.3252437115

> <CNNaffinity_variance>
0.2237549573

$$$$



 37 41  0  0  0  0  0  0  0  0999 V2000
    7.7541   -1.7172   24.4129 N   0  0  0  0  0  0  0  0  0  0  0  0
    7.6332   -0.7550   23.2685 C   0  0  0  0  0  0  0  0  0  0  0  0
    6.8436   -1.1334   22.0506 O   0  0  0  0  0  0  0  0  0  0  0  0
    3.8202   -4.8602   25.6958 N   0  0  0  0  0  0  0  0  0  0  0  0
    3.1907   -3.7504   26.4844 C   0  0  0  0  0  0  0  0  0  0  0  0
    3.8594   -2.4097   26.5579 C   0  0  0  0  0  0  0  0  0  0  0  0
    5.1576   -2.1789   25.8429 C   0  0  0  0  0  0  0  0  0  0  0  0
    5.7871   -3.2887   25.0543 C   0  0  0  0  0  0  0  0  0  0  0  0
    7.0854   -3.0579   24.3393 C   0  0  0  0  0  0  0  0  0  0  0  0
    7.7149   -4.1677   23.5507 C   0  0  0  0  0  0  0  0  0  0  0  0
    7.0462   -5.5084   23.4771 C   0  0  0  0  0  0  0  0  0  0  0  0
    5.7480   -5.7392   24.1921 C   0  0  0  0  0  0  0  0  0  0  0  0
    5.1184   -4.6294   24.9808 C   0  0  0  0  0  0  0  0  0  0  0  0
    4.2591   -3.9803   25.7441 H   0  0  0  0  0  0  0  0  0  0  0  0
    3.1515   -6.2009   25.6222 C   0  0  0  0  0  0  0  0  0  0  0  0
    2.3384   -6.5683   24.4165 O   0  0  0  0  0  0  0  0  0  0  0  0
    4.0385   -6.7763   27.9954 C   0  0  0  0  0  0  0  0  0  0  0  0
    3.2959   -7.1742   26.7543 C   0  0  0  0  0  0  0  0  0  0  0  0
    8.5437   -1.3388   25.6307 C   0  0  0  0  0  0  0  0  0  0  0  0
    9.7547   -2.1353   26.0169 C   0  0  0  0  0  0  0  0  0  0  0  0
    9.5956   -3.4333   26.7518 C   0  0  0  0  0  0  0  0  0  0  0  0
   10.8066   -4.2298   27.1379 C   0  0  0  0  0  0  0  0  0  0  0  0
   12.1767   -3.7283   26.7892 C   0  0  0  0  0  0  0  0  0  0  0  0
   12.3357   -2.4304   26.0543 C   0  0  0  0  0  0  0  0  0  0  0  0
   13.7057   -1.9289   25.7055 Cl  0  0  0  0  0  0  0  0  0  0  0  0
   11.1247   -1.6339   25.6681 C   0  0  0  0  0  0  0  0  0  0  0  0
    8.3019    0.5857   23.3421 C   0  0  0  0  0  0  0  0  0  0  0  0
    9.7686    0.7092   23.0530 C   0  0  0  0  0  0  0  0  0  0  0  0
   10.6017   -0.5235   22.8619 C   0  0  0  0  0  0  0  0  0  0  0  0
   12.0684   -0.4000   22.5728 N   0  0  0  0  0  0  0  0  0  0  0  0
   12.7020    0.9561   22.4747 C   0  0  0  0  0  0  0  0  0  0  0  0
   11.8688    2.1887   22.6658 C   0  0  0  0  0  0  0  0  0  0  0  0
   12.5024    3.5448   22.5678 C   0  0  0  0  0  0  0  0  0  0  0  0
   11.6692    4.7775   22.7588 C   0  0  0  0  0  0  0  0  0  0  0  0
   10.2026    4.6540   23.0479 C   0  0  0  0  0  0  0  0  0  0  0  0
    9.5690    3.2979   23.1460 C   0  0  0  0  0  0  0  0  0  0  0  0
   10.4021    2.0652   22.9549 C   0  0  0  0  0  0  0  0  0  0  0  0
 17 18  1  0  0  0
 18 15  1  0  0  0
 15 16  2  0  0  0
  4 15  1  0  0  0
  4  5  1  0  0  0
  5  6  1  0  0  0
  6  7  1  0  0  0
  7  8  1  0  0  0
  8  9  2  0  0  0
  9  1  1  0  0  0
  1 19  1  0  0  0
 19 20  1  0  0  0
 20 21  2  0  0  0
 21 22  1  0  0  0
 22 23  2  0  0  0
 23 24  1  0  0  0
 24 25  1  0  0  0
 24 26  2  0  0  0
  1  2  1  0  0  0
  2  3  2  0  0  0
  2 27  1  0  0  0
 27 28  1  0  0  0
 28 29  2  0  0  0
 29 30  1  0  0  0
 30 31  2  0  0  0
 31 32  1  0  0  0
 32 33  2  0  0  0
 33 34  1  0  0  0
 34 35  2  0  0  0
 35 36  1  0  0  0
 36 37  2  0  0  0
  9 10  1  0  0  0
 10 11  2  0  0  0
 11 12  1  0  0  0
 12 13  2  0  0  0
 13  4  1  0  0  0
 13  8  1  0  0  0
 26 20  1  0  0  0
 37 28  1  0  0  0
 37 32  1  0  0  0
  4 14  1  0  0  0
M  CHG 1   4   1
M  END
> <minimizedAffinity>
-7.30948

> <CNNscore>
0.3436193764

> <CNNaffinity>
6.7333030701

> <CNN_VS>
2.3136932850

> <CNNaffinity_variance>
0.1126036197

$$$$



 37 41  0  0  0  0  0  0  0  0999 V2000
    6.4879   -1.3620   23.7832 N   0  0  0  0  0  0  0  0  0  0  0  0
    7.5735   -0.7005   24.5795 C   0  0  0  0  0  0  0  0  0  0  0  0
    8.2562    0.5234   24.0450 O   0  0  0  0  0  0  0  0  0  0  0  0
    3.3420    1.6300   20.9282 N   0  0  0  0  0  0  0  0  0  0  0  0
    2.5746    2.0009   22.1624 C   0  0  0  0  0  0  0  0  0  0  0  0
    2.9774    1.4383   23.4933 C   0  0  0  0  0  0  0  0  0  0  0  0
    4.1475    0.5049   23.5900 C   0  0  0  0  0  0  0  0  0  0  0  0
    4.9149    0.1340   22.3557 C   0  0  0  0  0  0  0  0  0  0  0  0
    6.0852   -0.7994   22.4523 C   0  0  0  0  0  0  0  0  0  0  0  0
    6.8526   -1.1703   21.2180 C   0  0  0  0  0  0  0  0  0  0  0  0
    6.4498   -0.6078   19.8871 C   0  0  0  0  0  0  0  0  0  0  0  0
    5.2796    0.3257   19.7905 C   0  0  0  0  0  0  0  0  0  0  0  0
    4.5122    0.6966   21.0248 C   0  0  0  0  0  0  0  0  0  0  0  0
    3.6064    1.2608   21.8017 H   0  0  0  0  0  0  0  0  0  0  0  0
    2.9393    2.1926   19.5972 C   0  0  0  0  0  0  0  0  0  0  0  0
    3.6430    1.7459   18.3502 O   0  0  0  0  0  0  0  0  0  0  0  0
    0.4095    2.7455   19.3864 C   0  0  0  0  0  0  0  0  0  0  0  0
    1.8328    3.2018   19.5134 C   0  0  0  0  0  0  0  0  0  0  0  0
    5.8052   -2.5859   24.3178 C   0  0  0  0  0  0  0  0  0  0  0  0
    6.1992   -3.9437   23.8167 C   0  0  0  0  0  0  0  0  0  0  0  0
    7.1169   -4.8066   24.6312 C   0  0  0  0  0  0  0  0  0  0  0  0
    7.5109   -6.1644   24.1301 C   0  0  0  0  0  0  0  0  0  0  0  0
    6.9872   -6.6594   22.8145 C   0  0  0  0  0  0  0  0  0  0  0  0
    6.0695   -5.7966   22.0001 C   0  0  0  0  0  0  0  0  0  0  0  0
    5.5458   -6.2915   20.6844 Cl  0  0  0  0  0  0  0  0  0  0  0  0
    5.6755   -4.4387   22.5011 C   0  0  0  0  0  0  0  0  0  0  0  0
    7.9763   -1.2631   25.9105 C   0  0  0  0  0  0  0  0  0  0  0  0
    9.1804   -2.1512   26.0159 C   0  0  0  0  0  0  0  0  0  0  0  0
    9.0913   -3.4504   26.7603 C   0  0  0  0  0  0  0  0  0  0  0  0
   10.2954   -4.3385   26.8658 N   0  0  0  0  0  0  0  0  0  0  0  0
   11.5889   -3.9275   26.2269 C   0  0  0  0  0  0  0  0  0  0  0  0
   11.6780   -2.6283   25.4825 C   0  0  0  0  0  0  0  0  0  0  0  0
   12.9714   -2.2172   24.8436 C   0  0  0  0  0  0  0  0  0  0  0  0
   13.0605   -0.9180   24.0992 C   0  0  0  0  0  0  0  0  0  0  0  0
   11.8564   -0.0299   23.9937 C   0  0  0  0  0  0  0  0  0  0  0  0
   10.5629   -0.4409   24.6327 C   0  0  0  0  0  0  0  0  0  0  0  0
   10.4738   -1.7401   25.3770 C   0  0  0  0  0  0  0  0  0  0  0  0
 17 18  1  0  0  0
 18 15  1  0  0  0
 15 16  2  0  0  0
  4 15  1  0  0  0
  4  5  1  0  0  0
  5  6  1  0  0  0
  6  7  1  0  0  0
  7  8  1  0  0  0
  8  9  2  0  0  0
  9  1  1  0  0  0
  1 19  1  0  0  0
 19 20  1  0  0  0
 20 21  2  0  0  0
 21 22  1  0  0  0
 22 23  2  0  0  0
 23 24  1  0  0  0
 24 25  1  0  0  0
 24 26  2  0  0  0
  1  2  1  0  0  0
  2  3  2  0  0  0
  2 27  1  0  0  0
 27 28  1  0  0  0
 28 29  2  0  0  0
 29 30  1  0  0  0
 30 31  2  0  0  0
 31 32  1  0  0  0
 32 33  2  0  0  0
 33 34  1  0  0  0
 34 35  2  0  0  0
 35 36  1  0  0  0
 36 37  2  0  0  0
  9 10  1  0  0  0
 10 11  2  0  0  0
 11 12  1  0  0  0
 12 13  2  0  0  0
 13  4  1  0  0  0
 13  8  1  0  0  0
 26 20  1  0  0  0
 37 28  1  0  0  0
 37 32  1  0  0  0
  4 14  1  0  0  0
M  CHG 1   4   1
M  END
> <minimizedAffinity>
-8.22191

> <CNNscore>
0.3396924138

> <CNNaffinity>
6.5209426880

> <CNN_VS>
2.2151148319

> <CNNaffinity_variance>
0.2121270448

$$$$



 37 41  0  0  0  0  0  0  0  0999 V2000
    6.0164   -0.0794   21.6358 N   0  0  0  0  0  0  0  0  0  0  0  0
    7.4865    0.2183   21.6566 C   0  0  0  0  0  0  0  0  0  0  0  0
    8.0541    1.2589   20.7374 O   0  0  0  0  0  0  0  0  0  0  0  0
    2.2080    3.3629   20.8316 N   0  0  0  0  0  0  0  0  0  0  0  0
    2.1086    3.5982   22.3096 C   0  0  0  0  0  0  0  0  0  0  0  0
    3.0109    2.8553   23.2497 C   0  0  0  0  0  0  0  0  0  0  0  0
    4.0127    1.8771   22.7118 C   0  0  0  0  0  0  0  0  0  0  0  0
    4.1122    1.6418   21.2337 C   0  0  0  0  0  0  0  0  0  0  0  0
    5.1140    0.6635   20.6957 C   0  0  0  0  0  0  0  0  0  0  0  0
    5.2134    0.4283   19.2176 C   0  0  0  0  0  0  0  0  0  0  0  0
    4.3110    1.1712   18.2775 C   0  0  0  0  0  0  0  0  0  0  0  0
    3.3092    2.1494   18.8155 C   0  0  0  0  0  0  0  0  0  0  0  0
    3.2098    2.3847   20.2936 C   0  0  0  0  0  0  0  0  0  0  0  0
    2.8002    2.8753   21.4486 H   0  0  0  0  0  0  0  0  0  0  0  0
    1.3056    4.1058   19.8915 C   0  0  0  0  0  0  0  0  0  0  0  0
    0.4521    3.3500   18.9167 O   0  0  0  0  0  0  0  0  0  0  0  0
   -0.0252    6.3205   19.6190 C   0  0  0  0  0  0  0  0  0  0  0  0
    1.2566    5.6046   19.9262 C   0  0  0  0  0  0  0  0  0  0  0  0
    5.4488   -1.1199   22.5550 C   0  0  0  0  0  0  0  0  0  0  0  0
    5.7050   -1.0372   24.0306 C   0  0  0  0  0  0  0  0  0  0  0  0
    5.6671   -2.2804   24.8693 C   0  0  0  0  0  0  0  0  0  0  0  0
    5.9233   -2.1977   26.3449 C   0  0  0  0  0  0  0  0  0  0  0  0
    6.2174   -0.8719   26.9819 C   0  0  0  0  0  0  0  0  0  0  0  0
    6.2553    0.3712   26.1433 C   0  0  0  0  0  0  0  0  0  0  0  0
    6.5494    1.6970   26.7803 Cl  0  0  0  0  0  0  0  0  0  0  0  0
    5.9991    0.2885   24.6677 C   0  0  0  0  0  0  0  0  0  0  0  0
    8.3889   -0.5246   22.5967 C   0  0  0  0  0  0  0  0  0  0  0  0
    9.8687   -0.2820   22.5646 C   0  0  0  0  0  0  0  0  0  0  0  0
   10.8123   -1.4283   22.3511 C   0  0  0  0  0  0  0  0  0  0  0  0
   12.2921   -1.1857   22.3190 N   0  0  0  0  0  0  0  0  0  0  0  0
   12.8285    0.2034   22.5005 C   0  0  0  0  0  0  0  0  0  0  0  0
   11.8850    1.3498   22.7140 C   0  0  0  0  0  0  0  0  0  0  0  0
   12.4213    2.7388   22.8955 C   0  0  0  0  0  0  0  0  0  0  0  0
   11.4777    3.8851   23.1090 C   0  0  0  0  0  0  0  0  0  0  0  0
    9.9979    3.6425   23.1411 C   0  0  0  0  0  0  0  0  0  0  0  0
    9.4615    2.2534   22.9596 C   0  0  0  0  0  0  0  0  0  0  0  0
   10.4050    1.1071   22.7461 C   0  0  0  0  0  0  0  0  0  0  0  0
 17 18  1  0  0  0
 18 15  1  0  0  0
 15 16  2  0  0  0
  4 15  1  0  0  0
  4  5  1  0  0  0
  5  6  1  0  0  0
  6  7  1  0  0  0
  7  8  1  0  0  0
  8  9  2  0  0  0
  9  1  1  0  0  0
  1 19  1  0  0  0
 19 20  1  0  0  0
 20 21  2  0  0  0
 21 22  1  0  0  0
 22 23  2  0  0  0
 23 24  1  0  0  0
 24 25  1  0  0  0
 24 26  2  0  0  0
  1  2  1  0  0  0
  2  3  2  0  0  0
  2 27  1  0  0  0
 27 28  1  0  0  0
 28 29  2  0  0  0
 29 30  1  0  0  0
 30 31  2  0  0  0
 31 32  1  0  0  0
 32 33  2  0  0  0
 33 34  1  0  0  0
 34 35  2  0  0  0
 35 36  1  0  0  0
 36 37  2  0  0  0
  9 10  1  0  0  0
 10 11  2  0  0  0
 11 12  1  0  0  0
 12 13  2  0  0  0
 13  4  1  0  0  0
 13  8  1  0  0  0
 26 20  1  0  0  0
 37 28  1  0  0  0
 37 32  1  0  0  0
  4 14  1  0  0  0
M  CHG 1   4   1
M  END
> <minimizedAffinity>
-7.21087

> <CNNscore>
0.3133794665

> <CNNaffinity>
6.3877511024

> <CNN_VS>
2.0017900467

> <CNNaffinity_variance>
0.1613463461

$$$$



 37 41  0  0  0  0  0  0  0  0999 V2000
    6.8738   -0.7365   21.7145 N   0  0  0  0  0  0  0  0  0  0  0  0
    8.3704   -0.6354   21.7272 C   0  0  0  0  0  0  0  0  0  0  0  0
    9.0370    0.6662   21.3937 O   0  0  0  0  0  0  0  0  0  0  0  0
    5.0838    3.9930   22.9092 N   0  0  0  0  0  0  0  0  0  0  0  0
    5.8485    3.9566   24.1991 C   0  0  0  0  0  0  0  0  0  0  0  0
    6.6784    2.7560   24.5454 C   0  0  0  0  0  0  0  0  0  0  0  0
    6.7435    1.5918   23.6018 C   0  0  0  0  0  0  0  0  0  0  0  0
    5.9788    1.6282   22.3119 C   0  0  0  0  0  0  0  0  0  0  0  0
    6.0439    0.4640   21.3682 C   0  0  0  0  0  0  0  0  0  0  0  0
    5.2792    0.5005   20.0783 C   0  0  0  0  0  0  0  0  0  0  0  0
    4.4493    1.7010   19.7320 C   0  0  0  0  0  0  0  0  0  0  0  0
    4.3842    2.8652   20.6756 C   0  0  0  0  0  0  0  0  0  0  0  0
    5.1489    2.8288   21.9656 C   0  0  0  0  0  0  0  0  0  0  0  0
    5.6285    3.2050   23.1365 H   0  0  0  0  0  0  0  0  0  0  0  0
    4.2539    5.1936   22.5629 C   0  0  0  0  0  0  0  0  0  0  0  0
    2.7580    5.1208   22.6466 O   0  0  0  0  0  0  0  0  0  0  0  0
    6.1142    6.4198   21.2267 C   0  0  0  0  0  0  0  0  0  0  0  0
    4.9199    6.4670   22.1330 C   0  0  0  0  0  0  0  0  0  0  0  0
    6.2072   -2.0382   22.0480 C   0  0  0  0  0  0  0  0  0  0  0  0
    6.1406   -2.5034   23.4725 C   0  0  0  0  0  0  0  0  0  0  0  0
    6.3765   -1.5317   24.5906 C   0  0  0  0  0  0  0  0  0  0  0  0
    6.3100   -1.9969   26.0151 C   0  0  0  0  0  0  0  0  0  0  0  0
    6.0075   -3.4338   26.3214 C   0  0  0  0  0  0  0  0  0  0  0  0
    5.7716   -4.4055   25.2033 C   0  0  0  0  0  0  0  0  0  0  0  0
    5.4691   -5.8424   25.5097 Cl  0  0  0  0  0  0  0  0  0  0  0  0
    5.8382   -3.9403   23.7788 C   0  0  0  0  0  0  0  0  0  0  0  0
    9.2003   -1.8360   22.0735 C   0  0  0  0  0  0  0  0  0  0  0  0
   10.4329   -1.6787   22.9137 C   0  0  0  0  0  0  0  0  0  0  0  0
   11.5128   -0.7277   22.4904 C   0  0  0  0  0  0  0  0  0  0  0  0
   12.7454   -0.5704   23.3306 N   0  0  0  0  0  0  0  0  0  0  0  0
   12.8980   -1.3642   24.5942 C   0  0  0  0  0  0  0  0  0  0  0  0
   11.8181   -2.3153   25.0175 C   0  0  0  0  0  0  0  0  0  0  0  0
   11.9707   -3.1091   26.2810 C   0  0  0  0  0  0  0  0  0  0  0  0
   10.8908   -4.0602   26.7043 C   0  0  0  0  0  0  0  0  0  0  0  0
    9.6582   -4.2174   25.8641 C   0  0  0  0  0  0  0  0  0  0  0  0
    9.5056   -3.4236   24.6005 C   0  0  0  0  0  0  0  0  0  0  0  0
   10.5855   -2.4725   24.1772 C   0  0  0  0  0  0  0  0  0  0  0  0
 17 18  1  0  0  0
 18 15  1  0  0  0
 15 16  2  0  0  0
  4 15  1  0  0  0
  4  5  1  0  0  0
  5  6  1  0  0  0
  6  7  1  0  0  0
  7  8  1  0  0  0
  8  9  2  0  0  0
  9  1  1  0  0  0
  1 19  1  0  0  0
 19 20  1  0  0  0
 20 21  2  0  0  0
 21 22  1  0  0  0
 22 23  2  0  0  0
 23 24  1  0  0  0
 24 25  1  0  0  0
 24 26  2  0  0  0
  1  2  1  0  0  0
  2  3  2  0  0  0
  2 27  1  0  0  0
 27 28  1  0  0  0
 28 29  2  0  0  0
 29 30  1  0  0  0
 30 31  2  0  0  0
 31 32  1  0  0  0
 32 33  2  0  0  0
 33 34  1  0  0  0
 34 35  2  0  0  0
 35 36  1  0  0  0
 36 37  2  0  0  0
  9 10  1  0  0  0
 10 11  2  0  0  0
 11 12  1  0  0  0
 12 13  2  0  0  0
 13  4  1  0  0  0
 13  8  1  0  0  0
 26 20  1  0  0  0
 37 28  1  0  0  0
 37 32  1  0  0  0
  4 14  1  0  0  0
M  CHG 1   4   1
M  END
> <minimizedAffinity>
-7.35507

> <CNNscore>
0.2994434237

> <CNNaffinity>
6.5817947388

> <CNN_VS>
1.9708751440

> <CNNaffinity_variance>
0.1004576683

$$$$
