


 42 47  0  0  0  0  0  0  0  0999 V2000
    6.6468   -3.2452   24.0020 N   0  0  0  0  0  0  0  0  0  0  0  0
    6.8105   -1.8443   23.4913 C   0  0  0  0  0  0  0  0  0  0  0  0
    8.1236   -1.1368   23.6500 C   0  0  0  0  0  0  0  0  0  0  0  0
    9.3700   -0.3068   23.7365 C   0  0  0  0  0  0  0  0  0  0  0  0
   10.5097   -0.3794   24.1516 O   0  0  0  0  0  0  0  0  0  0  0  0
    9.0864    1.0230   23.1031 N   0  0  0  0  0  0  0  0  0  0  0  0
    7.6646    1.0148   22.6251 C   0  0  0  0  0  0  0  0  0  0  0  0
    7.0696   -0.3200   22.9631 C   0  0  0  0  0  0  0  0  0  0  0  0
    9.2731   -1.8302   24.3193 C   0  0  0  0  0  0  0  0  0  0  0  0
   10.5862   -1.1228   24.4779 C   0  0  0  0  0  0  0  0  0  0  0  0
   11.7356   -1.8162   25.1472 C   0  0  0  0  0  0  0  0  0  0  0  0
   13.0488   -1.1087   25.3058 Cl  0  0  0  0  0  0  0  0  0  0  0  0
   11.5719   -3.2170   25.6579 C   0  0  0  0  0  0  0  0  0  0  0  0
   10.2588   -3.9245   25.4992 C   0  0  0  0  0  0  0  0  0  0  0  0
    9.1094   -3.2311   24.8300 C   0  0  0  0  0  0  0  0  0  0  0  0
    7.7962   -3.9386   24.6713 C   0  0  0  0  0  0  0  0  0  0  0  0
    7.6325   -5.3394   25.1820 O   0  0  0  0  0  0  0  0  0  0  0  0
   10.0545    2.1610   22.9709 C   0  0  0  0  0  0  0  0  0  0  0  0
   11.5072    1.8846   22.7195 C   0  0  0  0  0  0  0  0  0  0  0  0
   12.4754    3.0226   22.5874 N   0  0  0  0  0  0  0  0  0  0  0  0
   11.9908    4.4372   22.7066 C   0  0  0  0  0  0  0  0  0  0  0  0
   10.5381    4.7136   22.9580 C   0  0  0  0  0  0  0  0  0  0  0  0
   10.0535    6.1283   23.0772 C   0  0  0  0  0  0  0  0  0  0  0  0
    8.6008    6.4046   23.3286 C   0  0  0  0  0  0  0  0  0  0  0  0
    7.6326    5.2666   23.4608 C   0  0  0  0  0  0  0  0  0  0  0  0
    8.1172    3.8520   23.3415 C   0  0  0  0  0  0  0  0  0  0  0  0
    9.5699    3.5756   23.0901 C   0  0  0  0  0  0  0  0  0  0  0  0
    5.3336   -3.9526   23.8434 C   0  0  0  0  0  0  0  0  0  0  0  0
    5.1700   -5.0015   22.7836 C   0  0  0  0  0  0  0  0  0  0  0  0
    4.7030   -6.8819   24.5144 C   0  0  0  0  0  0  0  0  0  0  0  0
    5.1794   -6.4539   23.1580 N   0  0  0  0  0  0  0  0  0  0  0  0
    5.5098   -7.1506   22.4903 H   0  0  0  0  0  0  0  0  0  0  0  0
    5.5034   -6.1629   22.2357 H   0  0  0  0  0  0  0  0  0  0  0  0
    5.6668   -0.7606   22.6663 C   0  0  0  0  0  0  0  0  0  0  0  0
    4.5236    0.1890   22.8693 O   0  0  0  0  0  0  0  0  0  0  0  0
    4.0172    1.0098   21.7205 C   0  0  0  0  0  0  0  0  0  0  0  0
    4.4804    0.7131   20.3250 C   0  0  0  0  0  0  0  0  0  0  0  0
    4.4409    1.4449   19.0162 C   0  0  0  0  0  0  0  0  0  0  0  0
    5.1354    0.2934   18.3514 S   0  0  0  0  0  0  0  0  0  0  0  0
    5.8300   -0.8580   17.6867 O   0  0  0  0  0  0  0  0  0  0  0  0
    5.0959    1.0252   17.0427 O   0  0  0  0  0  0  0  0  0  0  0  0
    5.1750   -0.4384   19.6603 C   0  0  0  0  0  0  0  0  0  0  0  0
 30 31  1  0  0  0
 31 29  1  0  0  0
 29 28  1  0  0  0
 28  1  1  0  0  0
  1  2  1  0  0  0
  3  2  1  0  0  0
  3  4  1  0  0  0
  4  5  2  0  0  0
  4  6  1  0  0  0
  6 18  1  0  0  0
 18 19  2  0  0  0
 19 20  1  0  0  0
 20 21  2  0  0  0
 21 22  1  0  0  0
 22 23  2  0  0  0
 23 24  1  0  0  0
 24 25  2  0  0  0
 25 26  1  0  0  0
 26 27  2  0  0  0
  6  7  1  0  0  0
  7  8  1  0  0  0
  8 34  1  0  0  0
 34 35  1  0  0  0
 35 36  1  0  0  0
 36 37  1  0  0  0
 37 38  1  0  0  0
 38 39  1  0  0  0
 39 40  2  0  0  0
 39 41  2  0  0  0
 39 42  1  0  0  0
  3  9  1  0  0  0
  9 10  2  0  0  0
 10 11  1  0  0  0
 11 12  1  0  0  0
 11 13  2  0  0  0
 13 14  1  0  0  0
 14 15  2  0  0  0
 15 16  1  0  0  0
 16 17  2  0  0  0
 16  1  1  0  0  0
  8  3  1  0  0  0
 42 37  1  0  0  0
 15  9  1  0  0  0
 27 18  1  0  0  0
 27 22  1  0  0  0
 31 32  1  0  0  0
 31 33  1  0  0  0
M  CHG 1  31   1
M  END
> <minimizedAffinity>
-8.16640

> <CNNscore>
0.4225784540

> <CNNaffinity>
7.0763883591

> <CNN_VS>
2.9903292656

> <CNNaffinity_variance>
0.1036012545

$$$$



 42 47  0  0  0  0  0  0  0  0999 V2000
   10.5568    0.8097   23.5974 N   0  0  0  0  0  0  0  0  0  0  0  0
    9.1633    0.4594   24.0281 C   0  0  0  0  0  0  0  0  0  0  0  0
    8.9271   -0.7341   24.9054 C   0  0  0  0  0  0  0  0  0  0  0  0
    8.5382   -1.8913   25.7769 C   0  0  0  0  0  0  0  0  0  0  0  0
    9.0467   -2.8218   26.3703 O   0  0  0  0  0  0  0  0  0  0  0  0
    7.0486   -1.8611   25.9503 N   0  0  0  0  0  0  0  0  0  0  0  0
    6.5168   -0.6852   25.1858 C   0  0  0  0  0  0  0  0  0  0  0  0
    7.6778    0.0113   24.5401 C   0  0  0  0  0  0  0  0  0  0  0  0
   10.0845   -1.5774   25.3521 C   0  0  0  0  0  0  0  0  0  0  0  0
    9.8482   -2.7709   26.2295 C   0  0  0  0  0  0  0  0  0  0  0  0
   11.0055   -3.6141   26.6762 C   0  0  0  0  0  0  0  0  0  0  0  0
   10.7694   -4.8076   27.5535 Cl  0  0  0  0  0  0  0  0  0  0  0  0
   12.3991   -3.2638   26.2455 C   0  0  0  0  0  0  0  0  0  0  0  0
   12.6353   -2.0703   25.3682 C   0  0  0  0  0  0  0  0  0  0  0  0
   11.4780   -1.2271   24.9215 C   0  0  0  0  0  0  0  0  0  0  0  0
   11.7141   -0.0335   24.0441 C   0  0  0  0  0  0  0  0  0  0  0  0
   13.1077    0.3167   23.6135 O   0  0  0  0  0  0  0  0  0  0  0  0
    6.2338   -2.8357   26.7480 C   0  0  0  0  0  0  0  0  0  0  0  0
    6.0949   -2.6599   28.2312 C   0  0  0  0  0  0  0  0  0  0  0  0
    5.2801   -3.6344   29.0289 N   0  0  0  0  0  0  0  0  0  0  0  0
    4.6043   -4.7848   28.3434 C   0  0  0  0  0  0  0  0  0  0  0  0
    4.7433   -4.9606   26.8602 C   0  0  0  0  0  0  0  0  0  0  0  0
    4.0675   -6.1111   26.1747 C   0  0  0  0  0  0  0  0  0  0  0  0
    4.2065   -6.2868   24.6916 C   0  0  0  0  0  0  0  0  0  0  0  0
    5.0213   -5.3122   23.8939 C   0  0  0  0  0  0  0  0  0  0  0  0
    5.6970   -4.1619   24.5793 C   0  0  0  0  0  0  0  0  0  0  0  0
    5.5581   -3.9860   26.0625 C   0  0  0  0  0  0  0  0  0  0  0  0
   10.7930    2.0032   22.7201 C   0  0  0  0  0  0  0  0  0  0  0  0
   12.0540    2.8026   22.8647 C   0  0  0  0  0  0  0  0  0  0  0  0
   11.2275    5.2642   22.9492 C   0  0  0  0  0  0  0  0  0  0  0  0
   12.0209    4.1392   23.5448 N   0  0  0  0  0  0  0  0  0  0  0  0
   12.5379    4.2830   24.4122 H   0  0  0  0  0  0  0  0  0  0  0  0
   12.5604    3.3741   23.9498 H   0  0  0  0  0  0  0  0  0  0  0  0
    7.6026    1.2380   23.6799 C   0  0  0  0  0  0  0  0  0  0  0  0
    6.2800    1.6959   23.1406 O   0  0  0  0  0  0  0  0  0  0  0  0
    5.4052    0.7384   22.3870 C   0  0  0  0  0  0  0  0  0  0  0  0
    5.7099    0.4119   20.9551 C   0  0  0  0  0  0  0  0  0  0  0  0
    6.9424    0.0182   20.1960 C   0  0  0  0  0  0  0  0  0  0  0  0
    6.1409   -0.0499   18.9299 S   0  0  0  0  0  0  0  0  0  0  0  0
    5.3395   -0.1179   17.6638 O   0  0  0  0  0  0  0  0  0  0  0  0
    7.3733   -0.4435   18.1709 O   0  0  0  0  0  0  0  0  0  0  0  0
    4.9084    0.3439   19.6889 C   0  0  0  0  0  0  0  0  0  0  0  0
 30 31  1  0  0  0
 31 29  1  0  0  0
 29 28  1  0  0  0
 28  1  1  0  0  0
  1  2  1  0  0  0
  3  2  1  0  0  0
  3  4  1  0  0  0
  4  5  2  0  0  0
  4  6  1  0  0  0
  6 18  1  0  0  0
 18 19  2  0  0  0
 19 20  1  0  0  0
 20 21  2  0  0  0
 21 22  1  0  0  0
 22 23  2  0  0  0
 23 24  1  0  0  0
 24 25  2  0  0  0
 25 26  1  0  0  0
 26 27  2  0  0  0
  6  7  1  0  0  0
  7  8  1  0  0  0
  8 34  1  0  0  0
 34 35  1  0  0  0
 35 36  1  0  0  0
 36 37  1  0  0  0
 37 38  1  0  0  0
 38 39  1  0  0  0
 39 40  2  0  0  0
 39 41  2  0  0  0
 39 42  1  0  0  0
  3  9  1  0  0  0
  9 10  2  0  0  0
 10 11  1  0  0  0
 11 12  1  0  0  0
 11 13  2  0  0  0
 13 14  1  0  0  0
 14 15  2  0  0  0
 15 16  1  0  0  0
 16 17  2  0  0  0
 16  1  1  0  0  0
  8  3  1  0  0  0
 42 37  1  0  0  0
 15  9  1  0  0  0
 27 18  1  0  0  0
 27 22  1  0  0  0
 31 32  1  0  0  0
 31 33  1  0  0  0
M  CHG 1  31   1
M  END
> <minimizedAffinity>
-9.02283

> <CNNscore>
0.3928961158

> <CNNaffinity>
6.9893045425

> <CNN_VS>
2.7460706234

> <CNNaffinity_variance>
0.1537464559

$$$$



 42 47  0  0  0  0  0  0  0  0999 V2000
    8.3299    4.5273   23.0865 N   0  0  0  0  0  0  0  0  0  0  0  0
    7.5336    3.2778   23.3206 C   0  0  0  0  0  0  0  0  0  0  0  0
    8.2202    1.9444   23.3448 C   0  0  0  0  0  0  0  0  0  0  0  0
    8.7655    0.5480   23.3956 C   0  0  0  0  0  0  0  0  0  0  0  0
    9.8226   -0.0427   23.2958 O   0  0  0  0  0  0  0  0  0  0  0  0
    7.6211   -0.3875   23.6513 N   0  0  0  0  0  0  0  0  0  0  0  0
    6.3686    0.4308   23.7585 C   0  0  0  0  0  0  0  0  0  0  0  0
    6.7389    1.8720   23.5691 C   0  0  0  0  0  0  0  0  0  0  0  0
    9.7031    1.8605   23.1349 C   0  0  0  0  0  0  0  0  0  0  0  0
   10.3897    0.5271   23.1591 C   0  0  0  0  0  0  0  0  0  0  0  0
   11.8726    0.4432   22.9493 C   0  0  0  0  0  0  0  0  0  0  0  0
   12.5592   -0.8903   22.9735 Cl  0  0  0  0  0  0  0  0  0  0  0  0
   12.6688    1.6926   22.7152 C   0  0  0  0  0  0  0  0  0  0  0  0
   11.9822    3.0260   22.6910 C   0  0  0  0  0  0  0  0  0  0  0  0
   10.4994    3.1099   22.9009 C   0  0  0  0  0  0  0  0  0  0  0  0
    9.8127    4.4434   22.8767 C   0  0  0  0  0  0  0  0  0  0  0  0
   10.6090    5.6929   22.6427 O   0  0  0  0  0  0  0  0  0  0  0  0
    7.7132   -1.8793   23.7777 C   0  0  0  0  0  0  0  0  0  0  0  0
    6.8088   -2.7581   22.9653 C   0  0  0  0  0  0  0  0  0  0  0  0
    6.9009   -4.2499   23.0916 N   0  0  0  0  0  0  0  0  0  0  0  0
    7.8974   -4.8630   24.0303 C   0  0  0  0  0  0  0  0  0  0  0  0
    8.8017   -3.9842   24.8427 C   0  0  0  0  0  0  0  0  0  0  0  0
    9.7982   -4.5974   25.7815 C   0  0  0  0  0  0  0  0  0  0  0  0
   10.7026   -3.7185   26.5938 C   0  0  0  0  0  0  0  0  0  0  0  0
   10.6105   -2.2267   26.4674 C   0  0  0  0  0  0  0  0  0  0  0  0
    9.6141   -1.6136   25.5287 C   0  0  0  0  0  0  0  0  0  0  0  0
    8.7097   -2.4924   24.7164 C   0  0  0  0  0  0  0  0  0  0  0  0
    7.6432    5.8607   23.0624 C   0  0  0  0  0  0  0  0  0  0  0  0
    7.1402    6.4685   24.3381 C   0  0  0  0  0  0  0  0  0  0  0  0
    8.0711    7.0812   26.6850 C   0  0  0  0  0  0  0  0  0  0  0  0
    7.7290    6.0486   25.6522 N   0  0  0  0  0  0  0  0  0  0  0  0
    7.8967    5.0608   25.8435 H   0  0  0  0  0  0  0  0  0  0  0  0
    7.4963    5.3464   24.9499 H   0  0  0  0  0  0  0  0  0  0  0  0
    5.7936    3.0364   23.5987 C   0  0  0  0  0  0  0  0  0  0  0  0
    4.9133    3.3180   22.4174 O   0  0  0  0  0  0  0  0  0  0  0  0
    4.1941    2.1936   21.7329 C   0  0  0  0  0  0  0  0  0  0  0  0
    4.7669    1.5849   20.4874 C   0  0  0  0  0  0  0  0  0  0  0  0
    6.0817    0.9645   20.1179 C   0  0  0  0  0  0  0  0  0  0  0  0
    5.5771    0.7240   18.7259 S   0  0  0  0  0  0  0  0  0  0  0  0
    5.0725    0.4835   17.3340 O   0  0  0  0  0  0  0  0  0  0  0  0
    6.8918    0.1036   18.3565 O   0  0  0  0  0  0  0  0  0  0  0  0
    4.2623    1.3444   19.0954 C   0  0  0  0  0  0  0  0  0  0  0  0
 30 31  1  0  0  0
 31 29  1  0  0  0
 29 28  1  0  0  0
 28  1  1  0  0  0
  1  2  1  0  0  0
  3  2  1  0  0  0
  3  4  1  0  0  0
  4  5  2  0  0  0
  4  6  1  0  0  0
  6 18  1  0  0  0
 18 19  2  0  0  0
 19 20  1  0  0  0
 20 21  2  0  0  0
 21 22  1  0  0  0
 22 23  2  0  0  0
 23 24  1  0  0  0
 24 25  2  0  0  0
 25 26  1  0  0  0
 26 27  2  0  0  0
  6  7  1  0  0  0
  7  8  1  0  0  0
  8 34  1  0  0  0
 34 35  1  0  0  0
 35 36  1  0  0  0
 36 37  1  0  0  0
 37 38  1  0  0  0
 38 39  1  0  0  0
 39 40  2  0  0  0
 39 41  2  0  0  0
 39 42  1  0  0  0
  3  9  1  0  0  0
  9 10  2  0  0  0
 10 11  1  0  0  0
 11 12  1  0  0  0
 11 13  2  0  0  0
 13 14  1  0  0  0
 14 15  2  0  0  0
 15 16  1  0  0  0
 16 17  2  0  0  0
 16  1  1  0  0  0
  8  3  1  0  0  0
 42 37  1  0  0  0
 15  9  1  0  0  0
 27 18  1  0  0  0
 27 22  1  0  0  0
 31 32  1  0  0  0
 31 33  1  0  0  0
M  CHG 1  31   1
M  END
> <minimizedAffinity>
-7.90520

> <CNNscore>
0.3269022703

> <CNNaffinity>
6.8544321060

> <CNN_VS>
2.2407293320

> <CNNaffinity_variance>
0.2213201821

$$$$



 42 47  0  0  0  0  0  0  0  0999 V2000
    8.1774    3.5748   23.1276 N   0  0  0  0  0  0  0  0  0  0  0  0
    7.4651    2.2862   23.4144 C   0  0  0  0  0  0  0  0  0  0  0  0
    8.2405    1.0057   23.5089 C   0  0  0  0  0  0  0  0  0  0  0  0
    8.8789   -0.3461   23.6319 C   0  0  0  0  0  0  0  0  0  0  0  0
    9.9749   -0.8670   23.5701 O   0  0  0  0  0  0  0  0  0  0  0  0
    7.7978   -1.3446   23.9220 N   0  0  0  0  0  0  0  0  0  0  0  0
    6.4912   -0.6100   23.9784 C   0  0  0  0  0  0  0  0  0  0  0  0
    6.7649    0.8426   23.7231 C   0  0  0  0  0  0  0  0  0  0  0  0
    9.7282    1.0137   23.3167 C   0  0  0  0  0  0  0  0  0  0  0  0
   10.5035   -0.2668   23.4113 C   0  0  0  0  0  0  0  0  0  0  0  0
   11.9911   -0.2587   23.2191 C   0  0  0  0  0  0  0  0  0  0  0  0
   12.7666   -1.5393   23.3136 Cl  0  0  0  0  0  0  0  0  0  0  0  0
   12.7033    1.0299   22.9323 C   0  0  0  0  0  0  0  0  0  0  0  0
   11.9280    2.3104   22.8377 C   0  0  0  0  0  0  0  0  0  0  0  0
   10.4404    2.3023   23.0300 C   0  0  0  0  0  0  0  0  0  0  0  0
    9.6649    3.5829   22.9354 C   0  0  0  0  0  0  0  0  0  0  0  0
   10.3772    4.8715   22.6486 O   0  0  0  0  0  0  0  0  0  0  0  0
    7.9896   -2.8190   24.1209 C   0  0  0  0  0  0  0  0  0  0  0  0
    9.0495   -3.3178   25.0578 C   0  0  0  0  0  0  0  0  0  0  0  0
    9.2413   -4.7921   25.2566 N   0  0  0  0  0  0  0  0  0  0  0  0
    8.3732   -5.7676   24.5186 C   0  0  0  0  0  0  0  0  0  0  0  0
    7.3133   -5.2688   23.5817 C   0  0  0  0  0  0  0  0  0  0  0  0
    6.4451   -6.2444   22.8437 C   0  0  0  0  0  0  0  0  0  0  0  0
    5.3852   -5.7455   21.9068 C   0  0  0  0  0  0  0  0  0  0  0  0
    5.1934   -4.2712   21.7079 C   0  0  0  0  0  0  0  0  0  0  0  0
    6.0615   -3.2957   22.4460 C   0  0  0  0  0  0  0  0  0  0  0  0
    7.1215   -3.7945   23.3829 C   0  0  0  0  0  0  0  0  0  0  0  0
    7.4019    4.8554   23.0330 C   0  0  0  0  0  0  0  0  0  0  0  0
    6.5148    5.1094   21.8505 C   0  0  0  0  0  0  0  0  0  0  0  0
    5.9413    7.4725   20.9358 C   0  0  0  0  0  0  0  0  0  0  0  0
    5.6186    6.3120   21.8297 N   0  0  0  0  0  0  0  0  0  0  0  0
    4.7897    6.3407   22.4235 H   0  0  0  0  0  0  0  0  0  0  0  0
    5.3992    5.5229   22.4376 H   0  0  0  0  0  0  0  0  0  0  0  0
    5.7423    1.9395   23.6881 C   0  0  0  0  0  0  0  0  0  0  0  0
    4.4862    1.7687   22.8864 O   0  0  0  0  0  0  0  0  0  0  0  0
    4.4136    2.2968   21.4843 C   0  0  0  0  0  0  0  0  0  0  0  0
    4.9509    1.4802   20.3465 C   0  0  0  0  0  0  0  0  0  0  0  0
    4.4352    1.0705   18.9988 C   0  0  0  0  0  0  0  0  0  0  0  0
    5.7106    0.3254   18.7373 S   0  0  0  0  0  0  0  0  0  0  0  0
    6.9859   -0.4197   18.4759 O   0  0  0  0  0  0  0  0  0  0  0  0
    5.1950   -0.0844   17.3897 O   0  0  0  0  0  0  0  0  0  0  0  0
    6.2263    0.7351   20.0851 C   0  0  0  0  0  0  0  0  0  0  0  0
 30 31  1  0  0  0
 31 29  1  0  0  0
 29 28  1  0  0  0
 28  1  1  0  0  0
  1  2  1  0  0  0
  3  2  1  0  0  0
  3  4  1  0  0  0
  4  5  2  0  0  0
  4  6  1  0  0  0
  6 18  1  0  0  0
 18 19  2  0  0  0
 19 20  1  0  0  0
 20 21  2  0  0  0
 21 22  1  0  0  0
 22 23  2  0  0  0
 23 24  1  0  0  0
 24 25  2  0  0  0
 25 26  1  0  0  0
 26 27  2  0  0  0
  6  7  1  0  0  0
  7  8  1  0  0  0
  8 34  1  0  0  0
 34 35  1  0  0  0
 35 36  1  0  0  0
 36 37  1  0  0  0
 37 38  1  0  0  0
 38 39  1  0  0  0
 39 40  2  0  0  0
 39 41  2  0  0  0
 39 42  1  0  0  0
  3  9  1  0  0  0
  9 10  2  0  0  0
 10 11  1  0  0  0
 11 12  1  0  0  0
 11 13  2  0  0  0
 13 14  1  0  0  0
 14 15  2  0  0  0
 15 16  1  0  0  0
 16 17  2  0  0  0
 16  1  1  0  0  0
  8  3  1  0  0  0
 42 37  1  0  0  0
 15  9  1  0  0  0
 27 18  1  0  0  0
 27 22  1  0  0  0
 31 32  1  0  0  0
 31 33  1  0  0  0
M  CHG 1  31   1
M  END
> <minimizedAffinity>
-7.61876

> <CNNscore>
0.3205174208

> <CNNaffinity>
6.7599663734

> <CNN_VS>
2.1666870117

> <CNNaffinity_variance>
0.3953347504

$$$$



 42 47  0  0  0  0  0  0  0  0999 V2000
   10.0253    0.8267   23.2712 N   0  0  0  0  0  0  0  0  0  0  0  0
    8.6513    0.3027   23.5667 C   0  0  0  0  0  0  0  0  0  0  0  0
    8.4780   -0.8751   24.4793 C   0  0  0  0  0  0  0  0  0  0  0  0
    8.1503   -2.0385   25.3675 C   0  0  0  0  0  0  0  0  0  0  0  0
    8.7073   -2.8634   26.0645 O   0  0  0  0  0  0  0  0  0  0  0  0
    6.6602   -2.2102   25.3757 N   0  0  0  0  0  0  0  0  0  0  0  0
    6.0669   -1.1528   24.4926 C   0  0  0  0  0  0  0  0  0  0  0  0
    7.1904   -0.3277   23.9386 C   0  0  0  0  0  0  0  0  0  0  0  0
    9.6788   -1.5288   25.0964 C   0  0  0  0  0  0  0  0  0  0  0  0
    9.5056   -2.7065   26.0090 C   0  0  0  0  0  0  0  0  0  0  0  0
   10.7063   -3.3602   26.6260 C   0  0  0  0  0  0  0  0  0  0  0  0
   10.5331   -4.5380   27.5387 Cl  0  0  0  0  0  0  0  0  0  0  0  0
   12.0804   -2.8362   26.3305 C   0  0  0  0  0  0  0  0  0  0  0  0
   12.2537   -1.6584   25.4179 C   0  0  0  0  0  0  0  0  0  0  0  0
   11.0529   -1.0047   24.8009 C   0  0  0  0  0  0  0  0  0  0  0  0
   11.2261    0.1731   23.8882 C   0  0  0  0  0  0  0  0  0  0  0  0
   12.6002    0.6971   23.5927 O   0  0  0  0  0  0  0  0  0  0  0  0
    5.8973   -3.2557   26.1339 C   0  0  0  0  0  0  0  0  0  0  0  0
    5.5211   -4.5437   25.4633 C   0  0  0  0  0  0  0  0  0  0  0  0
    4.7582   -5.5892   26.2215 N   0  0  0  0  0  0  0  0  0  0  0  0
    4.3715   -5.3468   27.6504 C   0  0  0  0  0  0  0  0  0  0  0  0
    4.7476   -4.0588   28.3210 C   0  0  0  0  0  0  0  0  0  0  0  0
    4.3608   -3.8164   29.7499 C   0  0  0  0  0  0  0  0  0  0  0  0
    4.7370   -2.5284   30.4205 C   0  0  0  0  0  0  0  0  0  0  0  0
    5.4999   -1.4829   29.6622 C   0  0  0  0  0  0  0  0  0  0  0  0
    5.8867   -1.7253   28.2334 C   0  0  0  0  0  0  0  0  0  0  0  0
    5.5105   -3.0133   27.5628 C   0  0  0  0  0  0  0  0  0  0  0  0
   10.1985    2.0045   22.3585 C   0  0  0  0  0  0  0  0  0  0  0  0
   11.2168    3.0583   22.6791 C   0  0  0  0  0  0  0  0  0  0  0  0
   11.6301    5.5840   22.2321 C   0  0  0  0  0  0  0  0  0  0  0  0
   11.4578    4.1851   21.7188 N   0  0  0  0  0  0  0  0  0  0  0  0
   11.5044    4.0002   20.7168 H   0  0  0  0  0  0  0  0  0  0  0  0
   11.3406    3.2339   21.3698 H   0  0  0  0  0  0  0  0  0  0  0  0
    7.0508    0.8399   23.0073 C   0  0  0  0  0  0  0  0  0  0  0  0
    5.7761    1.6301   22.9811 O   0  0  0  0  0  0  0  0  0  0  0  0
    5.1877    2.0613   21.6704 C   0  0  0  0  0  0  0  0  0  0  0  0
    5.4977    1.2927   20.4201 C   0  0  0  0  0  0  0  0  0  0  0  0
    6.6563    0.4692   19.9410 C   0  0  0  0  0  0  0  0  0  0  0  0
    5.9360    0.2057   18.6518 S   0  0  0  0  0  0  0  0  0  0  0  0
    5.2157   -0.0578   17.3628 O   0  0  0  0  0  0  0  0  0  0  0  0
    7.0945   -0.6178   18.1728 O   0  0  0  0  0  0  0  0  0  0  0  0
    4.7773    1.0292   19.1310 C   0  0  0  0  0  0  0  0  0  0  0  0
 30 31  1  0  0  0
 31 29  1  0  0  0
 29 28  1  0  0  0
 28  1  1  0  0  0
  1  2  1  0  0  0
  3  2  1  0  0  0
  3  4  1  0  0  0
  4  5  2  0  0  0
  4  6  1  0  0  0
  6 18  1  0  0  0
 18 19  2  0  0  0
 19 20  1  0  0  0
 20 21  2  0  0  0
 21 22  1  0  0  0
 22 23  2  0  0  0
 23 24  1  0  0  0
 24 25  2  0  0  0
 25 26  1  0  0  0
 26 27  2  0  0  0
  6  7  1  0  0  0
  7  8  1  0  0  0
  8 34  1  0  0  0
 34 35  1  0  0  0
 35 36  1  0  0  0
 36 37  1  0  0  0
 37 38  1  0  0  0
 38 39  1  0  0  0
 39 40  2  0  0  0
 39 41  2  0  0  0
 39 42  1  0  0  0
  3  9  1  0  0  0
  9 10  2  0  0  0
 10 11  1  0  0  0
 11 12  1  0  0  0
 11 13  2  0  0  0
 13 14  1  0  0  0
 14 15  2  0  0  0
 15 16  1  0  0  0
 16 17  2  0  0  0
 16  1  1  0  0  0
  8  3  1  0  0  0
 42 37  1  0  0  0
 15  9  1  0  0  0
 27 18  1  0  0  0
 27 22  1  0  0  0
 31 32  1  0  0  0
 31 33  1  0  0  0
M  CHG 1  31   1
M  END
> <minimizedAffinity>
-8.63184

> <CNNscore>
0.3054847419

> <CNNaffinity>
6.7686905861

> <CNN_VS>
2.0677316189

> <CNNaffinity_variance>
0.1080204025

$$$$



 42 47  0  0  0  0  0  0  0  0999 V2000
    5.7843    4.0761   22.6550 N   0  0  0  0  0  0  0  0  0  0  0  0
    6.5503    2.7902   22.5565 C   0  0  0  0  0  0  0  0  0  0  0  0
    6.8703    2.0109   23.7975 C   0  0  0  0  0  0  0  0  0  0  0  0
    7.2618    1.1277   24.9449 C   0  0  0  0  0  0  0  0  0  0  0  0
    7.1598    1.0731   26.1545 O   0  0  0  0  0  0  0  0  0  0  0  0
    8.0127   -0.0467   24.3908 N   0  0  0  0  0  0  0  0  0  0  0  0
    8.0853    0.1107   22.9009 C   0  0  0  0  0  0  0  0  0  0  0  0
    7.3793    1.3824   22.5342 C   0  0  0  0  0  0  0  0  0  0  0  0
    6.4244    2.5175   25.1372 C   0  0  0  0  0  0  0  0  0  0  0  0
    6.7445    1.7382   26.3782 C   0  0  0  0  0  0  0  0  0  0  0  0
    6.2986    2.2449   27.7177 C   0  0  0  0  0  0  0  0  0  0  0  0
    6.6187    1.4656   28.9589 Cl  0  0  0  0  0  0  0  0  0  0  0  0
    5.5327    3.5308   27.8163 C   0  0  0  0  0  0  0  0  0  0  0  0
    5.2127    4.3101   26.5752 C   0  0  0  0  0  0  0  0  0  0  0  0
    5.6585    3.8035   25.2357 C   0  0  0  0  0  0  0  0  0  0  0  0
    5.3385    4.5828   23.9946 C   0  0  0  0  0  0  0  0  0  0  0  0
    4.5725    5.8687   24.0931 O   0  0  0  0  0  0  0  0  0  0  0  0
    8.5896   -1.1796   25.1869 C   0  0  0  0  0  0  0  0  0  0  0  0
    7.6805   -2.1170   25.9250 C   0  0  0  0  0  0  0  0  0  0  0  0
    8.2574   -3.2498   26.7211 N   0  0  0  0  0  0  0  0  0  0  0  0
    9.7435   -3.4453   26.7791 C   0  0  0  0  0  0  0  0  0  0  0  0
   10.6526   -2.5079   26.0410 C   0  0  0  0  0  0  0  0  0  0  0  0
   12.1388   -2.7033   26.0990 C   0  0  0  0  0  0  0  0  0  0  0  0
   13.0478   -1.7659   25.3608 C   0  0  0  0  0  0  0  0  0  0  0  0
   12.4709   -0.6330   24.5648 C   0  0  0  0  0  0  0  0  0  0  0  0
   10.9848   -0.4376   24.5068 C   0  0  0  0  0  0  0  0  0  0  0  0
   10.0757   -1.3750   25.2449 C   0  0  0  0  0  0  0  0  0  0  0  0
    5.4643    4.8554   21.4139 C   0  0  0  0  0  0  0  0  0  0  0  0
    6.1228    6.1809   21.1698 C   0  0  0  0  0  0  0  0  0  0  0  0
    7.5720    7.4379   22.9218 C   0  0  0  0  0  0  0  0  0  0  0  0
    7.4626    6.4756   21.7764 N   0  0  0  0  0  0  0  0  0  0  0  0
    8.2993    6.0217   21.4100 H   0  0  0  0  0  0  0  0  0  0  0  0
    7.3883    5.8212   20.9976 H   0  0  0  0  0  0  0  0  0  0  0  0
    7.2117    1.9294   21.1476 C   0  0  0  0  0  0  0  0  0  0  0  0
    7.0419    0.9938   19.9876 O   0  0  0  0  0  0  0  0  0  0  0  0
    5.7187    0.3297   19.7471 C   0  0  0  0  0  0  0  0  0  0  0  0
    4.4575    1.1414   19.7668 C   0  0  0  0  0  0  0  0  0  0  0  0
    3.4065    1.4436   20.7937 C   0  0  0  0  0  0  0  0  0  0  0  0
    2.6738    2.2894   19.7948 S   0  0  0  0  0  0  0  0  0  0  0  0
    1.9410    3.1352   18.7960 O   0  0  0  0  0  0  0  0  0  0  0  0
    1.6229    2.5916   20.8215 O   0  0  0  0  0  0  0  0  0  0  0  0
    3.7247    1.9873   18.7679 C   0  0  0  0  0  0  0  0  0  0  0  0
 30 31  1  0  0  0
 31 29  1  0  0  0
 29 28  1  0  0  0
 28  1  1  0  0  0
  1  2  1  0  0  0
  3  2  1  0  0  0
  3  4  1  0  0  0
  4  5  2  0  0  0
  4  6  1  0  0  0
  6 18  1  0  0  0
 18 19  2  0  0  0
 19 20  1  0  0  0
 20 21  2  0  0  0
 21 22  1  0  0  0
 22 23  2  0  0  0
 23 24  1  0  0  0
 24 25  2  0  0  0
 25 26  1  0  0  0
 26 27  2  0  0  0
  6  7  1  0  0  0
  7  8  1  0  0  0
  8 34  1  0  0  0
 34 35  1  0  0  0
 35 36  1  0  0  0
 36 37  1  0  0  0
 37 38  1  0  0  0
 38 39  1  0  0  0
 39 40  2  0  0  0
 39 41  2  0  0  0
 39 42  1  0  0  0
  3  9  1  0  0  0
  9 10  2  0  0  0
 10 11  1  0  0  0
 11 12  1  0  0  0
 11 13  2  0  0  0
 13 14  1  0  0  0
 14 15  2  0  0  0
 15 16  1  0  0  0
 16 17  2  0  0  0
 16  1  1  0  0  0
  8  3  1  0  0  0
 42 37  1  0  0  0
 15  9  1  0  0  0
 27 18  1  0  0  0
 27 22  1  0  0  0
 31 32  1  0  0  0
 31 33  1  0  0  0
M  CHG 1  31   1
M  END
> <minimizedAffinity>
-7.83237

> <CNNscore>
0.2998162508

> <CNNaffinity>
6.4281530380

> <CNN_VS>
1.9272646904

> <CNNaffinity_variance>
0.0873680934

$$$$



 42 47  0  0  0  0  0  0  0  0999 V2000
   10.4653    0.7142   23.5775 N   0  0  0  0  0  0  0  0  0  0  0  0
    9.0731    0.3332   23.9856 C   0  0  0  0  0  0  0  0  0  0  0  0
    8.8514   -0.8479   24.8832 C   0  0  0  0  0  0  0  0  0  0  0  0
    8.4762   -1.9973   25.7710 C   0  0  0  0  0  0  0  0  0  0  0  0
    8.9975   -2.9002   26.3951 O   0  0  0  0  0  0  0  0  0  0  0  0
    6.9829   -2.0062   25.9117 N   0  0  0  0  0  0  0  0  0  0  0  0
    6.4350   -0.8623   25.1109 C   0  0  0  0  0  0  0  0  0  0  0  0
    7.5898   -0.1465   24.4752 C   0  0  0  0  0  0  0  0  0  0  0  0
   10.0220   -1.6481   25.3727 C   0  0  0  0  0  0  0  0  0  0  0  0
    9.8003   -2.8293   26.2703 C   0  0  0  0  0  0  0  0  0  0  0  0
   10.9708   -3.6294   26.7598 C   0  0  0  0  0  0  0  0  0  0  0  0
   10.7492   -4.8106   27.6574 Cl  0  0  0  0  0  0  0  0  0  0  0  0
   12.3630   -3.2484   26.3516 C   0  0  0  0  0  0  0  0  0  0  0  0
   12.5847   -2.0672   25.4541 C   0  0  0  0  0  0  0  0  0  0  0  0
   11.4142   -1.2671   24.9646 C   0  0  0  0  0  0  0  0  0  0  0  0
   11.6358   -0.0859   24.0669 C   0  0  0  0  0  0  0  0  0  0  0  0
   13.0280    0.2951   23.6588 O   0  0  0  0  0  0  0  0  0  0  0  0
    6.1786   -2.9869   26.7126 C   0  0  0  0  0  0  0  0  0  0  0  0
    6.0487   -2.8152   28.1971 C   0  0  0  0  0  0  0  0  0  0  0  0
    5.2444   -3.7958   28.9980 N   0  0  0  0  0  0  0  0  0  0  0  0
    4.5700   -4.9482   28.3144 C   0  0  0  0  0  0  0  0  0  0  0  0
    4.6999   -5.1198   26.8299 C   0  0  0  0  0  0  0  0  0  0  0  0
    4.0255   -6.2723   26.1464 C   0  0  0  0  0  0  0  0  0  0  0  0
    4.1554   -6.4439   24.6619 C   0  0  0  0  0  0  0  0  0  0  0  0
    4.9597   -5.4632   23.8610 C   0  0  0  0  0  0  0  0  0  0  0  0
    5.6341   -4.3109   24.5445 C   0  0  0  0  0  0  0  0  0  0  0  0
    5.5042   -4.1392   26.0290 C   0  0  0  0  0  0  0  0  0  0  0  0
   10.6869    1.8954   22.6798 C   0  0  0  0  0  0  0  0  0  0  0  0
   10.7741    3.2747   23.2630 C   0  0  0  0  0  0  0  0  0  0  0  0
   12.1402    4.8628   21.7263 C   0  0  0  0  0  0  0  0  0  0  0  0
   10.8379    4.4690   22.3579 N   0  0  0  0  0  0  0  0  0  0  0  0
    9.9956    5.0135   22.1718 H   0  0  0  0  0  0  0  0  0  0  0  0
    9.9523    4.2013   22.7873 H   0  0  0  0  0  0  0  0  0  0  0  0
    7.4990    1.0592   23.5875 C   0  0  0  0  0  0  0  0  0  0  0  0
    6.1743    1.4743   23.0195 O   0  0  0  0  0  0  0  0  0  0  0  0
    5.4587    2.6676   23.5797 C   0  0  0  0  0  0  0  0  0  0  0  0
    5.5632    2.9866   25.0417 C   0  0  0  0  0  0  0  0  0  0  0  0
    4.9772    2.4120   26.2973 C   0  0  0  0  0  0  0  0  0  0  0  0
    5.7111    3.4379   27.1093 S   0  0  0  0  0  0  0  0  0  0  0  0
    6.4449    4.4636   27.9212 O   0  0  0  0  0  0  0  0  0  0  0  0
    5.1251    2.8633   28.3648 O   0  0  0  0  0  0  0  0  0  0  0  0
    6.2971    4.0125   25.8536 C   0  0  0  0  0  0  0  0  0  0  0  0
 30 31  1  0  0  0
 31 29  1  0  0  0
 29 28  1  0  0  0
 28  1  1  0  0  0
  1  2  1  0  0  0
  3  2  1  0  0  0
  3  4  1  0  0  0
  4  5  2  0  0  0
  4  6  1  0  0  0
  6 18  1  0  0  0
 18 19  2  0  0  0
 19 20  1  0  0  0
 20 21  2  0  0  0
 21 22  1  0  0  0
 22 23  2  0  0  0
 23 24  1  0  0  0
 24 25  2  0  0  0
 25 26  1  0  0  0
 26 27  2  0  0  0
  6  7  1  0  0  0
  7  8  1  0  0  0
  8 34  1  0  0  0
 34 35  1  0  0  0
 35 36  1  0  0  0
 36 37  1  0  0  0
 37 38  1  0  0  0
 38 39  1  0  0  0
 39 40  2  0  0  0
 39 41  2  0  0  0
 39 42  1  0  0  0
  3  9  1  0  0  0
  9 10  2  0  0  0
 10 11  1  0  0  0
 11 12  1  0  0  0
 11 13  2  0  0  0
 13 14  1  0  0  0
 14 15  2  0  0  0
 15 16  1  0  0  0
 16 17  2  0  0  0
 16  1  1  0  0  0
  8  3  1  0  0  0
 42 37  1  0  0  0
 15  9  1  0  0  0
 27 18  1  0  0  0
 27 22  1  0  0  0
 31 32  1  0  0  0
 31 33  1  0  0  0
M  CHG 1  31   1
M  END
> <minimizedAffinity>
-7.11087

> <CNNscore>
0.2940599620

> <CNNaffinity>
6.5748114586

> <CNN_VS>
1.9333888292

> <CNNaffinity_variance>
0.5711599588

$$$$



 42 47  0  0  0  0  0  0  0  0999 V2000
   10.4856    0.5926   23.4030 N   0  0  0  0  0  0  0  0  0  0  0  0
    9.0812    0.1289   23.6533 C   0  0  0  0  0  0  0  0  0  0  0  0
    8.8291   -1.0565   24.5371 C   0  0  0  0  0  0  0  0  0  0  0  0
    8.4240   -2.2198   25.3930 C   0  0  0  0  0  0  0  0  0  0  0  0
    8.9232   -3.0833   26.0869 O   0  0  0  0  0  0  0  0  0  0  0  0
    6.9277   -2.3206   25.3603 N   0  0  0  0  0  0  0  0  0  0  0  0
    6.4081   -1.2196   24.4841 C   0  0  0  0  0  0  0  0  0  0  0  0
    7.5832   -0.4383   23.9754 C   0  0  0  0  0  0  0  0  0  0  0  0
    9.9814   -1.7782   25.1708 C   0  0  0  0  0  0  0  0  0  0  0  0
    9.7292   -2.9636   26.0547 C   0  0  0  0  0  0  0  0  0  0  0  0
   10.8814   -3.6852   26.6883 C   0  0  0  0  0  0  0  0  0  0  0  0
   10.6293   -4.8706   27.5723 Cl  0  0  0  0  0  0  0  0  0  0  0  0
   12.2858   -3.2215   26.4381 C   0  0  0  0  0  0  0  0  0  0  0  0
   12.5380   -2.0361   25.5542 C   0  0  0  0  0  0  0  0  0  0  0  0
   11.3858   -1.3145   24.9206 C   0  0  0  0  0  0  0  0  0  0  0  0
   11.6379   -0.1290   24.0367 C   0  0  0  0  0  0  0  0  0  0  0  0
   13.0423    0.3347   23.7864 O   0  0  0  0  0  0  0  0  0  0  0  0
    6.0970   -3.3430   26.0777 C   0  0  0  0  0  0  0  0  0  0  0  0
    5.7200   -4.6208   25.3885 C   0  0  0  0  0  0  0  0  0  0  0  0
    4.8894   -5.6432   26.1059 N   0  0  0  0  0  0  0  0  0  0  0  0
    4.4357   -5.3877   27.5126 C   0  0  0  0  0  0  0  0  0  0  0  0
    4.8127   -4.1099   28.2019 C   0  0  0  0  0  0  0  0  0  0  0  0
    4.3589   -3.8544   29.6087 C   0  0  0  0  0  0  0  0  0  0  0  0
    4.7360   -2.5766   30.2979 C   0  0  0  0  0  0  0  0  0  0  0  0
    5.5667   -1.5542   29.5804 C   0  0  0  0  0  0  0  0  0  0  0  0
    6.0204   -1.8097   28.1737 C   0  0  0  0  0  0  0  0  0  0  0  0
    5.6434   -3.0875   27.4845 C   0  0  0  0  0  0  0  0  0  0  0  0
   10.7378    1.7780   22.5191 C   0  0  0  0  0  0  0  0  0  0  0  0
   10.5083    3.1653   23.0414 C   0  0  0  0  0  0  0  0  0  0  0  0
   11.9055    5.1979   22.2252 C   0  0  0  0  0  0  0  0  0  0  0  0
   11.6671    4.1008   23.2199 N   0  0  0  0  0  0  0  0  0  0  0  0
   12.2931    3.9908   24.0177 H   0  0  0  0  0  0  0  0  0  0  0  0
   11.5050    3.3547   23.8963 H   0  0  0  0  0  0  0  0  0  0  0  0
    7.5229    0.7521   23.0648 C   0  0  0  0  0  0  0  0  0  0  0  0
    6.2184    1.1570   22.4449 O   0  0  0  0  0  0  0  0  0  0  0  0
    6.2010    2.1229   21.2975 C   0  0  0  0  0  0  0  0  0  0  0  0
    5.4512    3.4165   21.4173 C   0  0  0  0  0  0  0  0  0  0  0  0
    5.8390    4.8553   21.5895 C   0  0  0  0  0  0  0  0  0  0  0  0
    4.3907    5.2460   21.5868 S   0  0  0  0  0  0  0  0  0  0  0  0
    2.9425    5.6367   21.5842 O   0  0  0  0  0  0  0  0  0  0  0  0
    4.7785    6.6847   21.7590 O   0  0  0  0  0  0  0  0  0  0  0  0
    4.0029    3.8072   21.4147 C   0  0  0  0  0  0  0  0  0  0  0  0
 30 31  1  0  0  0
 31 29  1  0  0  0
 29 28  1  0  0  0
 28  1  1  0  0  0
  1  2  1  0  0  0
  3  2  1  0  0  0
  3  4  1  0  0  0
  4  5  2  0  0  0
  4  6  1  0  0  0
  6 18  1  0  0  0
 18 19  2  0  0  0
 19 20  1  0  0  0
 20 21  2  0  0  0
 21 22  1  0  0  0
 22 23  2  0  0  0
 23 24  1  0  0  0
 24 25  2  0  0  0
 25 26  1  0  0  0
 26 27  2  0  0  0
  6  7  1  0  0  0
  7  8  1  0  0  0
  8 34  1  0  0  0
 34 35  1  0  0  0
 35 36  1  0  0  0
 36 37  1  0  0  0
 37 38  1  0  0  0
 38 39  1  0  0  0
 39 40  2  0  0  0
 39 41  2  0  0  0
 39 42  1  0  0  0
  3  9  1  0  0  0
  9 10  2  0  0  0
 10 11  1  0  0  0
 11 12  1  0  0  0
 11 13  2  0  0  0
 13 14  1  0  0  0
 14 15  2  0  0  0
 15 16  1  0  0  0
 16 17  2  0  0  0
 16  1  1  0  0  0
  8  3  1  0  0  0
 42 37  1  0  0  0
 15  9  1  0  0  0
 27 18  1  0  0  0
 27 22  1  0  0  0
 31 32  1  0  0  0
 31 33  1  0  0  0
M  CHG 1  31   1
M  END
> <minimizedAffinity>
-7.39100

> <CNNscore>
0.2896749377

> <CNNaffinity>
6.7081503868

> <CNN_VS>
1.9431830645

> <CNNaffinity_variance>
0.1617994010

$$$$



 42 47  0  0  0  0  0  0  0  0999 V2000
   10.8947    1.5890   22.9984 N   0  0  0  0  0  0  0  0  0  0  0  0
    9.4949    1.4182   23.5096 C   0  0  0  0  0  0  0  0  0  0  0  0
    9.1532    0.2477   24.3832 C   0  0  0  0  0  0  0  0  0  0  0  0
    8.6649   -0.8663   25.2610 C   0  0  0  0  0  0  0  0  0  0  0  0
    9.0781   -1.8691   25.8088 O   0  0  0  0  0  0  0  0  0  0  0  0
    7.2058   -0.6417   25.5267 N   0  0  0  0  0  0  0  0  0  0  0  0
    6.7923    0.6112   24.8132 C   0  0  0  0  0  0  0  0  0  0  0  0
    7.9958    1.1609   24.1064 C   0  0  0  0  0  0  0  0  0  0  0  0
   10.2112   -0.7520   24.7456 C   0  0  0  0  0  0  0  0  0  0  0  0
    9.8695   -1.9224   25.6192 C   0  0  0  0  0  0  0  0  0  0  0  0
   10.9275   -2.9220   25.9815 C   0  0  0  0  0  0  0  0  0  0  0  0
   10.5858   -4.0925   26.8551 Cl  0  0  0  0  0  0  0  0  0  0  0  0
   12.3273   -2.7511   25.4703 C   0  0  0  0  0  0  0  0  0  0  0  0
   12.6691   -1.5807   24.5967 C   0  0  0  0  0  0  0  0  0  0  0  0
   11.6110   -0.5811   24.2344 C   0  0  0  0  0  0  0  0  0  0  0  0
   11.9527    0.5894   23.3607 C   0  0  0  0  0  0  0  0  0  0  0  0
   13.3525    0.7603   22.8495 O   0  0  0  0  0  0  0  0  0  0  0  0
    6.3165   -1.5164   26.3598 C   0  0  0  0  0  0  0  0  0  0  0  0
    6.9093   -2.6212   27.1832 C   0  0  0  0  0  0  0  0  0  0  0  0
    6.0200   -3.4959   28.0162 N   0  0  0  0  0  0  0  0  0  0  0  0
    4.5378   -3.2658   28.0258 C   0  0  0  0  0  0  0  0  0  0  0  0
    3.9449   -2.1610   27.2024 C   0  0  0  0  0  0  0  0  0  0  0  0
    2.4626   -1.9310   27.2120 C   0  0  0  0  0  0  0  0  0  0  0  0
    1.8699   -0.8262   26.3885 C   0  0  0  0  0  0  0  0  0  0  0  0
    2.7592    0.0485   25.5555 C   0  0  0  0  0  0  0  0  0  0  0  0
    4.2414   -0.1816   25.5459 C   0  0  0  0  0  0  0  0  0  0  0  0
    4.8343   -1.2863   26.3694 C   0  0  0  0  0  0  0  0  0  0  0  0
   11.2364    2.7596   22.1248 C   0  0  0  0  0  0  0  0  0  0  0  0
   12.1894    3.8088   22.6157 C   0  0  0  0  0  0  0  0  0  0  0  0
   10.4951    5.7254   23.0694 C   0  0  0  0  0  0  0  0  0  0  0  0
   11.6928    4.9245   23.4866 N   0  0  0  0  0  0  0  0  0  0  0  0
   12.1696    5.1386   24.3625 H   0  0  0  0  0  0  0  0  0  0  0  0
   12.5073    4.3799   23.7703 H   0  0  0  0  0  0  0  0  0  0  0  0
    8.0350    2.4053   23.2698 C   0  0  0  0  0  0  0  0  0  0  0  0
    6.8385    3.3080   23.2116 O   0  0  0  0  0  0  0  0  0  0  0  0
    5.5895    2.8540   22.5160 C   0  0  0  0  0  0  0  0  0  0  0  0
    5.6844    2.0251   21.2694 C   0  0  0  0  0  0  0  0  0  0  0  0
    6.7482    1.1766   20.6382 C   0  0  0  0  0  0  0  0  0  0  0  0
    5.8185    0.8529   19.5064 S   0  0  0  0  0  0  0  0  0  0  0  0
    4.8889    0.5292   18.3746 O   0  0  0  0  0  0  0  0  0  0  0  0
    6.8823    0.0044   18.8753 O   0  0  0  0  0  0  0  0  0  0  0  0
    4.7547    1.7014   20.1376 C   0  0  0  0  0  0  0  0  0  0  0  0
 30 31  1  0  0  0
 31 29  1  0  0  0
 29 28  1  0  0  0
 28  1  1  0  0  0
  1  2  1  0  0  0
  3  2  1  0  0  0
  3  4  1  0  0  0
  4  5  2  0  0  0
  4  6  1  0  0  0
  6 18  1  0  0  0
 18 19  2  0  0  0
 19 20  1  0  0  0
 20 21  2  0  0  0
 21 22  1  0  0  0
 22 23  2  0  0  0
 23 24  1  0  0  0
 24 25  2  0  0  0
 25 26  1  0  0  0
 26 27  2  0  0  0
  6  7  1  0  0  0
  7  8  1  0  0  0
  8 34  1  0  0  0
 34 35  1  0  0  0
 35 36  1  0  0  0
 36 37  1  0  0  0
 37 38  1  0  0  0
 38 39  1  0  0  0
 39 40  2  0  0  0
 39 41  2  0  0  0
 39 42  1  0  0  0
  3  9  1  0  0  0
  9 10  2  0  0  0
 10 11  1  0  0  0
 11 12  1  0  0  0
 11 13  2  0  0  0
 13 14  1  0  0  0
 14 15  2  0  0  0
 15 16  1  0  0  0
 16 17  2  0  0  0
 16  1  1  0  0  0
  8  3  1  0  0  0
 42 37  1  0  0  0
 15  9  1  0  0  0
 27 18  1  0  0  0
 27 22  1  0  0  0
 31 32  1  0  0  0
 31 33  1  0  0  0
M  CHG 1  31   1
M  END
> <minimizedAffinity>
-7.63846

> <CNNscore>
0.2888603210

> <CNNaffinity>
6.8274793625

> <CNN_VS>
1.9721878767

> <CNNaffinity_variance>
0.0922552273

$$$$
