


 27 30  0  0  0  0  0  0  0  0999 V2000
    8.1603   -3.3370   25.5536 C   0  0  0  0  0  0  0  0  0  0  0  0
    8.2256   -1.9085   26.0064 O   0  0  0  0  0  0  0  0  0  0  0  0
    9.4243   -4.0894   25.2602 N   0  0  0  0  0  0  0  0  0  0  0  0
    9.3814   -5.0270   24.9631 H   0  0  0  0  0  0  0  0  0  0  0  0
    4.8030   -6.0332   22.6450 C   0  0  0  0  0  0  0  0  0  0  0  0
    5.1522   -5.3612   23.9399 N   0  0  0  0  0  0  0  0  0  0  0  0
    6.4816   -4.6851   24.0993 C   0  0  0  0  0  0  0  0  0  0  0  0
    6.8308   -4.0131   25.3941 C   0  0  0  0  0  0  0  0  0  0  0  0
    5.8505   -4.0172   26.5295 C   0  0  0  0  0  0  0  0  0  0  0  0
    6.1997   -3.3453   27.8243 C   0  0  0  0  0  0  0  0  0  0  0  0
    5.2194   -3.3494   28.9596 C   0  0  0  0  0  0  0  0  0  0  0  0
    5.5685   -2.6774   30.2545 Cl  0  0  0  0  0  0  0  0  0  0  0  0
    3.8899   -4.0255   28.8001 C   0  0  0  0  0  0  0  0  0  0  0  0
    3.5408   -4.6975   27.5054 C   0  0  0  0  0  0  0  0  0  0  0  0
    4.5210   -4.6933   26.3701 C   0  0  0  0  0  0  0  0  0  0  0  0
    4.1719   -5.3653   25.0752 C   0  0  0  0  0  0  0  0  0  0  0  0
    2.8424   -6.0414   24.9157 O   0  0  0  0  0  0  0  0  0  0  0  0
   10.7537   -3.4133   25.4197 C   0  0  0  0  0  0  0  0  0  0  0  0
   11.6187   -3.7294   26.6037 C   0  0  0  0  0  0  0  0  0  0  0  0
   12.9481   -3.0533   26.7632 N   0  0  0  0  0  0  0  0  0  0  0  0
   13.4127   -2.0611   25.7386 C   0  0  0  0  0  0  0  0  0  0  0  0
   12.5477   -1.7450   24.5546 C   0  0  0  0  0  0  0  0  0  0  0  0
   13.0122   -0.7528   23.5300 C   0  0  0  0  0  0  0  0  0  0  0  0
   12.1473   -0.4367   22.3460 C   0  0  0  0  0  0  0  0  0  0  0  0
   10.8178   -1.1128   22.1866 C   0  0  0  0  0  0  0  0  0  0  0  0
   10.3533   -2.1050   23.2111 C   0  0  0  0  0  0  0  0  0  0  0  0
   11.2182   -2.4211   24.3951 C   0  0  0  0  0  0  0  0  0  0  0  0
  5  6  1  0  0  0
  6  7  1  0  0  0
  7  8  1  0  0  0
  8  1  1  0  0  0
  1  2  2  0  0  0
  1  3  1  0  0  0
  3 18  1  0  0  0
 18 19  2  0  0  0
 19 20  1  0  0  0
 20 21  2  0  0  0
 21 22  1  0  0  0
 22 23  2  0  0  0
 23 24  1  0  0  0
 24 25  2  0  0  0
 25 26  1  0  0  0
 26 27  2  0  0  0
  8  9  1  0  0  0
  9 10  2  0  0  0
 10 11  1  0  0  0
 11 12  1  0  0  0
 11 13  2  0  0  0
 13 14  1  0  0  0
 14 15  2  0  0  0
 15 16  1  0  0  0
 16 17  2  0  0  0
 16  6  1  0  0  0
 27 18  1  0  0  0
 15  9  1  0  0  0
 27 22  1  0  0  0
  3  4  1  0  0  0
M  END
> <minimizedAffinity>
-7.36039

> <CNNscore>
0.5679157972

> <CNNaffinity>
5.9615750313

> <CNN_VS>
3.3856725693

> <CNNaffinity_variance>
0.1356075704

$$$$



 27 30  0  0  0  0  0  0  0  0999 V2000
    8.2495   -3.5074   25.4652 C   0  0  0  0  0  0  0  0  0  0  0  0
    8.7685   -3.9942   24.1446 O   0  0  0  0  0  0  0  0  0  0  0  0
    9.1416   -2.7183   26.3769 N   0  0  0  0  0  0  0  0  0  0  0  0
    8.8010   -2.3988   27.2436 H   0  0  0  0  0  0  0  0  0  0  0  0
    4.3792   -3.1120   28.9097 C   0  0  0  0  0  0  0  0  0  0  0  0
    4.9031   -3.6120   27.5960 N   0  0  0  0  0  0  0  0  0  0  0  0
    6.3143   -3.3097   27.1874 C   0  0  0  0  0  0  0  0  0  0  0  0
    6.8382   -3.8097   25.8738 C   0  0  0  0  0  0  0  0  0  0  0  0
    5.9509   -4.6120   24.9688 C   0  0  0  0  0  0  0  0  0  0  0  0
    6.4748   -5.1120   23.6553 C   0  0  0  0  0  0  0  0  0  0  0  0
    5.5874   -5.9143   22.7503 C   0  0  0  0  0  0  0  0  0  0  0  0
    6.1113   -6.4143   21.4367 Cl  0  0  0  0  0  0  0  0  0  0  0  0
    4.1762   -6.2166   23.1590 C   0  0  0  0  0  0  0  0  0  0  0  0
    3.6523   -5.7166   24.4726 C   0  0  0  0  0  0  0  0  0  0  0  0
    4.5396   -4.9143   25.3775 C   0  0  0  0  0  0  0  0  0  0  0  0
    4.0157   -4.4143   26.6911 C   0  0  0  0  0  0  0  0  0  0  0  0
    2.6045   -4.7166   27.0998 O   0  0  0  0  0  0  0  0  0  0  0  0
   10.5529   -2.4160   25.9682 C   0  0  0  0  0  0  0  0  0  0  0  0
   11.6833   -3.2400   26.5096 C   0  0  0  0  0  0  0  0  0  0  0  0
   13.0946   -2.9377   26.1009 N   0  0  0  0  0  0  0  0  0  0  0  0
   13.3754   -1.8114   25.1509 C   0  0  0  0  0  0  0  0  0  0  0  0
   12.2449   -0.9873   24.6096 C   0  0  0  0  0  0  0  0  0  0  0  0
   12.5257    0.1390   23.6596 C   0  0  0  0  0  0  0  0  0  0  0  0
   11.3953    0.9630   23.1183 C   0  0  0  0  0  0  0  0  0  0  0  0
    9.9840    0.6607   23.5269 C   0  0  0  0  0  0  0  0  0  0  0  0
    9.7032   -0.4656   24.4769 C   0  0  0  0  0  0  0  0  0  0  0  0
   10.8337   -1.2896   25.0182 C   0  0  0  0  0  0  0  0  0  0  0  0
  5  6  1  0  0  0
  6  7  1  0  0  0
  7  8  1  0  0  0
  8  1  1  0  0  0
  1  2  2  0  0  0
  1  3  1  0  0  0
  3 18  1  0  0  0
 18 19  2  0  0  0
 19 20  1  0  0  0
 20 21  2  0  0  0
 21 22  1  0  0  0
 22 23  2  0  0  0
 23 24  1  0  0  0
 24 25  2  0  0  0
 25 26  1  0  0  0
 26 27  2  0  0  0
  8  9  1  0  0  0
  9 10  2  0  0  0
 10 11  1  0  0  0
 11 12  1  0  0  0
 11 13  2  0  0  0
 13 14  1  0  0  0
 14 15  2  0  0  0
 15 16  1  0  0  0
 16 17  2  0  0  0
 16  6  1  0  0  0
 27 18  1  0  0  0
 15  9  1  0  0  0
 27 22  1  0  0  0
  3  4  1  0  0  0
M  END
> <minimizedAffinity>
-7.38361

> <CNNscore>
0.5364918709

> <CNNaffinity>
5.8824377060

> <CNN_VS>
3.1558799744

> <CNNaffinity_variance>
0.1391983032

$$$$



 27 30  0  0  0  0  0  0  0  0999 V2000
    7.6400   -0.8442   21.5858 C   0  0  0  0  0  0  0  0  0  0  0  0
    8.2991    0.4361   21.1653 O   0  0  0  0  0  0  0  0  0  0  0  0
    6.3199   -1.2382   20.9926 N   0  0  0  0  0  0  0  0  0  0  0  0
    5.8874   -2.0784   21.2686 H   0  0  0  0  0  0  0  0  0  0  0  0
    7.6383   -5.1706   24.4636 C   0  0  0  0  0  0  0  0  0  0  0  0
    8.3004   -3.8935   24.0384 N   0  0  0  0  0  0  0  0  0  0  0  0
    7.6392   -3.0074   23.0247 C   0  0  0  0  0  0  0  0  0  0  0  0
    8.3012   -1.7304   22.5994 C   0  0  0  0  0  0  0  0  0  0  0  0
    9.6246   -1.3395   23.1878 C   0  0  0  0  0  0  0  0  0  0  0  0
   10.2866   -0.0625   22.7625 C   0  0  0  0  0  0  0  0  0  0  0  0
   11.6098    0.3284   23.3509 C   0  0  0  0  0  0  0  0  0  0  0  0
   12.2720    1.6054   22.9256 Cl  0  0  0  0  0  0  0  0  0  0  0  0
   12.2710   -0.5578   24.3646 C   0  0  0  0  0  0  0  0  0  0  0  0
   11.6090   -1.8348   24.7899 C   0  0  0  0  0  0  0  0  0  0  0  0
   10.2857   -2.2256   24.2015 C   0  0  0  0  0  0  0  0  0  0  0  0
    9.6236   -3.5027   24.6268 C   0  0  0  0  0  0  0  0  0  0  0  0
   10.2848   -4.3889   25.6404 O   0  0  0  0  0  0  0  0  0  0  0  0
    5.6587   -0.3520   19.9789 C   0  0  0  0  0  0  0  0  0  0  0  0
    6.0506   -0.4430   18.5339 C   0  0  0  0  0  0  0  0  0  0  0  0
    5.3894    0.4432   17.5203 N   0  0  0  0  0  0  0  0  0  0  0  0
    4.3363    1.4204   17.9516 C   0  0  0  0  0  0  0  0  0  0  0  0
    3.9444    1.5114   19.3967 C   0  0  0  0  0  0  0  0  0  0  0  0
    2.8913    2.4885   19.8280 C   0  0  0  0  0  0  0  0  0  0  0  0
    2.4994    2.5795   21.2730 C   0  0  0  0  0  0  0  0  0  0  0  0
    3.1606    1.6933   22.2867 C   0  0  0  0  0  0  0  0  0  0  0  0
    4.2137    0.7162   21.8554 C   0  0  0  0  0  0  0  0  0  0  0  0
    4.6056    0.6252   20.4103 C   0  0  0  0  0  0  0  0  0  0  0  0
  5  6  1  0  0  0
  6  7  1  0  0  0
  7  8  1  0  0  0
  8  1  1  0  0  0
  1  2  2  0  0  0
  1  3  1  0  0  0
  3 18  1  0  0  0
 18 19  2  0  0  0
 19 20  1  0  0  0
 20 21  2  0  0  0
 21 22  1  0  0  0
 22 23  2  0  0  0
 23 24  1  0  0  0
 24 25  2  0  0  0
 25 26  1  0  0  0
 26 27  2  0  0  0
  8  9  1  0  0  0
  9 10  2  0  0  0
 10 11  1  0  0  0
 11 12  1  0  0  0
 11 13  2  0  0  0
 13 14  1  0  0  0
 14 15  2  0  0  0
 15 16  1  0  0  0
 16 17  2  0  0  0
 16  6  1  0  0  0
 27 18  1  0  0  0
 15  9  1  0  0  0
 27 22  1  0  0  0
  3  4  1  0  0  0
M  END
> <minimizedAffinity>
-8.59138

> <CNNscore>
0.5299660563

> <CNNaffinity>
5.7389636040

> <CNN_VS>
3.0414559841

> <CNNaffinity_variance>
0.0926077738

$$$$



 27 30  0  0  0  0  0  0  0  0999 V2000
    7.8310   -3.1495   25.1069 C   0  0  0  0  0  0  0  0  0  0  0  0
    8.6717   -3.9139   24.1276 O   0  0  0  0  0  0  0  0  0  0  0  0
    8.2438   -1.7725   25.5352 N   0  0  0  0  0  0  0  0  0  0  0  0
    7.6921   -1.2708   26.1779 H   0  0  0  0  0  0  0  0  0  0  0  0
    4.5171   -3.8422   29.0488 C   0  0  0  0  0  0  0  0  0  0  0  0
    4.9206   -4.1085   27.6288 N   0  0  0  0  0  0  0  0  0  0  0  0
    6.1741   -3.4959   27.0778 C   0  0  0  0  0  0  0  0  0  0  0  0
    6.5776   -3.7621   25.6579 C   0  0  0  0  0  0  0  0  0  0  0  0
    5.7276   -4.6410   24.7888 C   0  0  0  0  0  0  0  0  0  0  0  0
    6.1311   -4.9072   23.3689 C   0  0  0  0  0  0  0  0  0  0  0  0
    5.2812   -5.7861   22.4999 C   0  0  0  0  0  0  0  0  0  0  0  0
    5.6847   -6.0524   21.0799 Cl  0  0  0  0  0  0  0  0  0  0  0  0
    4.0277   -6.3987   23.0509 C   0  0  0  0  0  0  0  0  0  0  0  0
    3.6242   -6.1325   24.4708 C   0  0  0  0  0  0  0  0  0  0  0  0
    4.4741   -5.2536   25.3398 C   0  0  0  0  0  0  0  0  0  0  0  0
    4.0707   -4.9873   26.7598 C   0  0  0  0  0  0  0  0  0  0  0  0
    2.8172   -5.5999   27.3108 O   0  0  0  0  0  0  0  0  0  0  0  0
    9.4973   -1.1599   24.9842 C   0  0  0  0  0  0  0  0  0  0  0  0
    9.4110   -0.0127   24.0217 C   0  0  0  0  0  0  0  0  0  0  0  0
   10.6645    0.5999   23.4708 N   0  0  0  0  0  0  0  0  0  0  0  0
   12.0042    0.0653   23.8823 C   0  0  0  0  0  0  0  0  0  0  0  0
   12.0905   -1.0819   24.8449 C   0  0  0  0  0  0  0  0  0  0  0  0
   13.4302   -1.6165   25.2564 C   0  0  0  0  0  0  0  0  0  0  0  0
   13.5164   -2.7637   26.2189 C   0  0  0  0  0  0  0  0  0  0  0  0
   12.2629   -3.3763   26.7699 C   0  0  0  0  0  0  0  0  0  0  0  0
   10.9232   -2.8417   26.3584 C   0  0  0  0  0  0  0  0  0  0  0  0
   10.8370   -1.6945   25.3958 C   0  0  0  0  0  0  0  0  0  0  0  0
  5  6  1  0  0  0
  6  7  1  0  0  0
  7  8  1  0  0  0
  8  1  1  0  0  0
  1  2  2  0  0  0
  1  3  1  0  0  0
  3 18  1  0  0  0
 18 19  2  0  0  0
 19 20  1  0  0  0
 20 21  2  0  0  0
 21 22  1  0  0  0
 22 23  2  0  0  0
 23 24  1  0  0  0
 24 25  2  0  0  0
 25 26  1  0  0  0
 26 27  2  0  0  0
  8  9  1  0  0  0
  9 10  2  0  0  0
 10 11  1  0  0  0
 11 12  1  0  0  0
 11 13  2  0  0  0
 13 14  1  0  0  0
 14 15  2  0  0  0
 15 16  1  0  0  0
 16 17  2  0  0  0
 16  6  1  0  0  0
 27 18  1  0  0  0
 15  9  1  0  0  0
 27 22  1  0  0  0
  3  4  1  0  0  0
M  END
> <minimizedAffinity>
-7.45458

> <CNNscore>
0.5139657855

> <CNNaffinity>
5.7864484787

> <CNN_VS>
2.9740364552

> <CNNaffinity_variance>
0.1091902256

$$$$



 27 30  0  0  0  0  0  0  0  0999 V2000
   10.5010    0.3654   23.6701 C   0  0  0  0  0  0  0  0  0  0  0  0
   11.9517    0.4818   24.0336 O   0  0  0  0  0  0  0  0  0  0  0  0
    9.7792    1.5402   23.0796 N   0  0  0  0  0  0  0  0  0  0  0  0
    8.8271    1.4638   22.8410 H   0  0  0  0  0  0  0  0  0  0  0  0
    6.3363   -2.6461   22.9044 C   0  0  0  0  0  0  0  0  0  0  0  0
    7.6899   -2.4316   23.5142 N   0  0  0  0  0  0  0  0  0  0  0  0
    8.4187   -1.1404   23.2873 C   0  0  0  0  0  0  0  0  0  0  0  0
    9.7722   -0.9259   23.8971 C   0  0  0  0  0  0  0  0  0  0  0  0
   10.3970   -2.0026   24.7339 C   0  0  0  0  0  0  0  0  0  0  0  0
   11.7505   -1.7881   25.3437 C   0  0  0  0  0  0  0  0  0  0  0  0
   12.3753   -2.8649   26.1805 C   0  0  0  0  0  0  0  0  0  0  0  0
   13.7289   -2.6504   26.7904 Cl  0  0  0  0  0  0  0  0  0  0  0  0
   11.6465   -4.1561   26.4075 C   0  0  0  0  0  0  0  0  0  0  0  0
   10.2930   -4.3706   25.7977 C   0  0  0  0  0  0  0  0  0  0  0  0
    9.6682   -3.2939   24.9609 C   0  0  0  0  0  0  0  0  0  0  0  0
    8.3146   -3.5084   24.3510 C   0  0  0  0  0  0  0  0  0  0  0  0
    7.5858   -4.7996   24.5780 O   0  0  0  0  0  0  0  0  0  0  0  0
   10.5080    2.8315   22.8526 C   0  0  0  0  0  0  0  0  0  0  0  0
   11.9676    2.8182   22.5073 C   0  0  0  0  0  0  0  0  0  0  0  0
   12.6964    4.1095   22.2803 N   0  0  0  0  0  0  0  0  0  0  0  0
   11.9655    5.4140   22.3986 C   0  0  0  0  0  0  0  0  0  0  0  0
   10.5058    5.4273   22.7440 C   0  0  0  0  0  0  0  0  0  0  0  0
    9.7750    6.7319   22.8623 C   0  0  0  0  0  0  0  0  0  0  0  0
    8.3154    6.7451   23.2076 C   0  0  0  0  0  0  0  0  0  0  0  0
    7.5866    5.4539   23.4346 C   0  0  0  0  0  0  0  0  0  0  0  0
    8.3174    4.1493   23.3163 C   0  0  0  0  0  0  0  0  0  0  0  0
    9.7771    4.1361   22.9710 C   0  0  0  0  0  0  0  0  0  0  0  0
  5  6  1  0  0  0
  6  7  1  0  0  0
  7  8  1  0  0  0
  8  1  1  0  0  0
  1  2  2  0  0  0
  1  3  1  0  0  0
  3 18  1  0  0  0
 18 19  2  0  0  0
 19 20  1  0  0  0
 20 21  2  0  0  0
 21 22  1  0  0  0
 22 23  2  0  0  0
 23 24  1  0  0  0
 24 25  2  0  0  0
 25 26  1  0  0  0
 26 27  2  0  0  0
  8  9  1  0  0  0
  9 10  2  0  0  0
 10 11  1  0  0  0
 11 12  1  0  0  0
 11 13  2  0  0  0
 13 14  1  0  0  0
 14 15  2  0  0  0
 15 16  1  0  0  0
 16 17  2  0  0  0
 16  6  1  0  0  0
 27 18  1  0  0  0
 15  9  1  0  0  0
 27 22  1  0  0  0
  3  4  1  0  0  0
M  END
> <minimizedAffinity>
-7.98206

> <CNNscore>
0.5114621520

> <CNNaffinity>
5.8679795265

> <CNN_VS>
3.0012495518

> <CNNaffinity_variance>
0.2279032767

$$$$



 27 30  0  0  0  0  0  0  0  0999 V2000
    8.0600   -2.9756   24.3279 C   0  0  0  0  0  0  0  0  0  0  0  0
    8.0502   -1.8439   25.3125 O   0  0  0  0  0  0  0  0  0  0  0  0
    9.2320   -3.1613   23.4104 N   0  0  0  0  0  0  0  0  0  0  0  0
    9.2385   -3.9040   22.7642 H   0  0  0  0  0  0  0  0  0  0  0  0
    5.1018   -6.2856   21.6274 C   0  0  0  0  0  0  0  0  0  0  0  0
    5.4187   -5.5765   22.9107 N   0  0  0  0  0  0  0  0  0  0  0  0
    6.5809   -4.6306   22.9777 C   0  0  0  0  0  0  0  0  0  0  0  0
    6.8978   -3.9216   24.2609 C   0  0  0  0  0  0  0  0  0  0  0  0
    6.0526   -4.1585   25.4773 C   0  0  0  0  0  0  0  0  0  0  0  0
    6.3696   -3.4495   26.7606 C   0  0  0  0  0  0  0  0  0  0  0  0
    5.5244   -3.6865   27.9769 C   0  0  0  0  0  0  0  0  0  0  0  0
    5.8413   -2.9775   29.2602 Cl  0  0  0  0  0  0  0  0  0  0  0  0
    4.3622   -4.6325   27.9099 C   0  0  0  0  0  0  0  0  0  0  0  0
    4.0452   -5.3415   26.6266 C   0  0  0  0  0  0  0  0  0  0  0  0
    4.8904   -5.1045   25.4104 C   0  0  0  0  0  0  0  0  0  0  0  0
    4.5735   -5.8135   24.1270 C   0  0  0  0  0  0  0  0  0  0  0  0
    3.4113   -6.7595   24.0600 O   0  0  0  0  0  0  0  0  0  0  0  0
   10.3942   -2.2153   23.4774 C   0  0  0  0  0  0  0  0  0  0  0  0
   10.5141   -1.1026   22.4787 C   0  0  0  0  0  0  0  0  0  0  0  0
   11.6763   -0.1566   22.5456 N   0  0  0  0  0  0  0  0  0  0  0  0
   12.7186   -0.3234   23.6113 C   0  0  0  0  0  0  0  0  0  0  0  0
   12.5988   -1.4362   24.6101 C   0  0  0  0  0  0  0  0  0  0  0  0
   13.6411   -1.6029   25.6758 C   0  0  0  0  0  0  0  0  0  0  0  0
   13.5212   -2.7156   26.6745 C   0  0  0  0  0  0  0  0  0  0  0  0
   12.3590   -3.6616   26.6075 C   0  0  0  0  0  0  0  0  0  0  0  0
   11.3167   -3.4948   25.5418 C   0  0  0  0  0  0  0  0  0  0  0  0
   11.4366   -2.3821   24.5431 C   0  0  0  0  0  0  0  0  0  0  0  0
  5  6  1  0  0  0
  6  7  1  0  0  0
  7  8  1  0  0  0
  8  1  1  0  0  0
  1  2  2  0  0  0
  1  3  1  0  0  0
  3 18  1  0  0  0
 18 19  2  0  0  0
 19 20  1  0  0  0
 20 21  2  0  0  0
 21 22  1  0  0  0
 22 23  2  0  0  0
 23 24  1  0  0  0
 24 25  2  0  0  0
 25 26  1  0  0  0
 26 27  2  0  0  0
  8  9  1  0  0  0
  9 10  2  0  0  0
 10 11  1  0  0  0
 11 12  1  0  0  0
 11 13  2  0  0  0
 13 14  1  0  0  0
 14 15  2  0  0  0
 15 16  1  0  0  0
 16 17  2  0  0  0
 16  6  1  0  0  0
 27 18  1  0  0  0
 15  9  1  0  0  0
 27 22  1  0  0  0
  3  4  1  0  0  0
M  END
> <minimizedAffinity>
-7.27286

> <CNNscore>
0.4660612941

> <CNNaffinity>
5.8359813690

> <CNN_VS>
2.7199249268

> <CNNaffinity_variance>
0.0703371018

$$$$



 27 30  0  0  0  0  0  0  0  0999 V2000
    6.1430   -1.6628   22.2203 C   0  0  0  0  0  0  0  0  0  0  0  0
    5.3322   -2.5827   21.3563 O   0  0  0  0  0  0  0  0  0  0  0  0
    6.4568   -0.2738   21.7490 N   0  0  0  0  0  0  0  0  0  0  0  0
    6.9890    0.3300   22.3161 H   0  0  0  0  0  0  0  0  0  0  0  0
    5.1834   -3.4264   27.0129 C   0  0  0  0  0  0  0  0  0  0  0  0
    6.1602   -3.0137   25.9518 N   0  0  0  0  0  0  0  0  0  0  0  0
    5.6633   -2.5446   24.6166 C   0  0  0  0  0  0  0  0  0  0  0  0
    6.6399   -2.1319   23.5555 C   0  0  0  0  0  0  0  0  0  0  0  0
    8.1136   -2.1884   23.8298 C   0  0  0  0  0  0  0  0  0  0  0  0
    9.0903   -1.7758   22.7688 C   0  0  0  0  0  0  0  0  0  0  0  0
   10.5639   -1.8323   23.0431 C   0  0  0  0  0  0  0  0  0  0  0  0
   11.5407   -1.4197   21.9820 Cl  0  0  0  0  0  0  0  0  0  0  0  0
   11.0608   -2.3015   24.3783 C   0  0  0  0  0  0  0  0  0  0  0  0
   10.0841   -2.7141   25.4393 C   0  0  0  0  0  0  0  0  0  0  0  0
    8.6105   -2.6576   25.1651 C   0  0  0  0  0  0  0  0  0  0  0  0
    7.6338   -3.0703   26.2261 C   0  0  0  0  0  0  0  0  0  0  0  0
    8.1307   -3.5394   27.5614 O   0  0  0  0  0  0  0  0  0  0  0  0
    5.9599    0.1954   20.4137 C   0  0  0  0  0  0  0  0  0  0  0  0
    6.7578   -0.0865   19.1752 C   0  0  0  0  0  0  0  0  0  0  0  0
    6.2609    0.3827   17.8400 N   0  0  0  0  0  0  0  0  0  0  0  0
    4.9661    1.1337   17.7432 C   0  0  0  0  0  0  0  0  0  0  0  0
    4.1682    1.4156   18.9817 C   0  0  0  0  0  0  0  0  0  0  0  0
    2.8734    2.1667   18.8849 C   0  0  0  0  0  0  0  0  0  0  0  0
    2.0755    2.4486   20.1234 C   0  0  0  0  0  0  0  0  0  0  0  0
    2.5724    1.9794   21.4587 C   0  0  0  0  0  0  0  0  0  0  0  0
    3.8672    1.2283   21.5555 C   0  0  0  0  0  0  0  0  0  0  0  0
    4.6651    0.9465   20.3170 C   0  0  0  0  0  0  0  0  0  0  0  0
  5  6  1  0  0  0
  6  7  1  0  0  0
  7  8  1  0  0  0
  8  1  1  0  0  0
  1  2  2  0  0  0
  1  3  1  0  0  0
  3 18  1  0  0  0
 18 19  2  0  0  0
 19 20  1  0  0  0
 20 21  2  0  0  0
 21 22  1  0  0  0
 22 23  2  0  0  0
 23 24  1  0  0  0
 24 25  2  0  0  0
 25 26  1  0  0  0
 26 27  2  0  0  0
  8  9  1  0  0  0
  9 10  2  0  0  0
 10 11  1  0  0  0
 11 12  1  0  0  0
 11 13  2  0  0  0
 13 14  1  0  0  0
 14 15  2  0  0  0
 15 16  1  0  0  0
 16 17  2  0  0  0
 16  6  1  0  0  0
 27 18  1  0  0  0
 15  9  1  0  0  0
 27 22  1  0  0  0
  3  4  1  0  0  0
M  END
> <minimizedAffinity>
-7.56141

> <CNNscore>
0.4595462084

> <CNNaffinity>
5.7184643745

> <CNN_VS>
2.6278986931

> <CNNaffinity_variance>
0.1330260932

$$$$



 27 30  0  0  0  0  0  0  0  0999 V2000
    6.8189    0.2564   23.2595 C   0  0  0  0  0  0  0  0  0  0  0  0
    7.0755    1.0539   22.0152 O   0  0  0  0  0  0  0  0  0  0  0  0
    6.3436    0.9429   24.5056 N   0  0  0  0  0  0  0  0  0  0  0  0
    6.1752    0.4195   25.3223 H   0  0  0  0  0  0  0  0  0  0  0  0
    5.1981   -4.5295   22.0477 C   0  0  0  0  0  0  0  0  0  0  0  0
    6.2272   -3.6205   22.6518 N   0  0  0  0  0  0  0  0  0  0  0  0
    6.0085   -2.1365   22.6536 C   0  0  0  0  0  0  0  0  0  0  0  0
    7.0375   -1.2276   23.2577 C   0  0  0  0  0  0  0  0  0  0  0  0
    8.2853   -1.8026   23.8599 C   0  0  0  0  0  0  0  0  0  0  0  0
    9.3143   -0.8936   24.4639 C   0  0  0  0  0  0  0  0  0  0  0  0
   10.5620   -1.4686   25.0660 C   0  0  0  0  0  0  0  0  0  0  0  0
   11.5910   -0.5596   25.6701 Cl  0  0  0  0  0  0  0  0  0  0  0  0
   10.7806   -2.9526   25.0642 C   0  0  0  0  0  0  0  0  0  0  0  0
    9.7516   -3.8615   24.4601 C   0  0  0  0  0  0  0  0  0  0  0  0
    8.5039   -3.2865   23.8580 C   0  0  0  0  0  0  0  0  0  0  0  0
    7.4748   -4.1955   23.2539 C   0  0  0  0  0  0  0  0  0  0  0  0
    7.6935   -5.6795   23.2521 O   0  0  0  0  0  0  0  0  0  0  0  0
    6.1250    2.4269   24.5075 C   0  0  0  0  0  0  0  0  0  0  0  0
    4.8059    2.9901   24.9464 C   0  0  0  0  0  0  0  0  0  0  0  0
    4.5872    4.4741   24.9483 N   0  0  0  0  0  0  0  0  0  0  0  0
    5.6876    5.3949   24.5112 C   0  0  0  0  0  0  0  0  0  0  0  0
    7.0068    4.8317   24.0722 C   0  0  0  0  0  0  0  0  0  0  0  0
    8.1073    5.7525   23.6351 C   0  0  0  0  0  0  0  0  0  0  0  0
    9.4264    5.1893   23.1962 C   0  0  0  0  0  0  0  0  0  0  0  0
    9.6450    3.7053   23.1943 C   0  0  0  0  0  0  0  0  0  0  0  0
    8.5446    2.7845   23.6314 C   0  0  0  0  0  0  0  0  0  0  0  0
    7.2255    3.3477   24.0704 C   0  0  0  0  0  0  0  0  0  0  0  0
  5  6  1  0  0  0
  6  7  1  0  0  0
  7  8  1  0  0  0
  8  1  1  0  0  0
  1  2  2  0  0  0
  1  3  1  0  0  0
  3 18  1  0  0  0
 18 19  2  0  0  0
 19 20  1  0  0  0
 20 21  2  0  0  0
 21 22  1  0  0  0
 22 23  2  0  0  0
 23 24  1  0  0  0
 24 25  2  0  0  0
 25 26  1  0  0  0
 26 27  2  0  0  0
  8  9  1  0  0  0
  9 10  2  0  0  0
 10 11  1  0  0  0
 11 12  1  0  0  0
 11 13  2  0  0  0
 13 14  1  0  0  0
 14 15  2  0  0  0
 15 16  1  0  0  0
 16 17  2  0  0  0
 16  6  1  0  0  0
 27 18  1  0  0  0
 15  9  1  0  0  0
 27 22  1  0  0  0
  3  4  1  0  0  0
M  END
> <minimizedAffinity>
-3.85000

> <CNNscore>
0.3917982280

> <CNNaffinity>
5.6544618607

> <CNN_VS>
2.2154080868

> <CNNaffinity_variance>
1.6832659245

$$$$



 27 30  0  0  0  0  0  0  0  0999 V2000
    6.3085   -1.8652   21.4735 C   0  0  0  0  0  0  0  0  0  0  0  0
    5.0624   -2.5279   20.9654 O   0  0  0  0  0  0  0  0  0  0  0  0
    6.7032   -0.5135   20.9568 N   0  0  0  0  0  0  0  0  0  0  0  0
    7.5210   -0.0786   21.2903 H   0  0  0  0  0  0  0  0  0  0  0  0
   10.5775   -1.9843   24.4335 C   0  0  0  0  0  0  0  0  0  0  0  0
    9.2944   -2.6140   23.9783 N   0  0  0  0  0  0  0  0  0  0  0  0
    8.4430   -1.9248   22.9535 C   0  0  0  0  0  0  0  0  0  0  0  0
    7.1599   -2.5544   22.4983 C   0  0  0  0  0  0  0  0  0  0  0  0
    6.7281   -3.8732   23.0678 C   0  0  0  0  0  0  0  0  0  0  0  0
    5.4451   -4.5028   22.6126 C   0  0  0  0  0  0  0  0  0  0  0  0
    5.0134   -5.8216   23.1822 C   0  0  0  0  0  0  0  0  0  0  0  0
    3.7303   -6.4513   22.7270 Cl  0  0  0  0  0  0  0  0  0  0  0  0
    5.8648   -6.5108   24.2070 C   0  0  0  0  0  0  0  0  0  0  0  0
    7.1479   -5.8812   24.6622 C   0  0  0  0  0  0  0  0  0  0  0  0
    7.5795   -4.5624   24.0926 C   0  0  0  0  0  0  0  0  0  0  0  0
    8.8627   -3.9327   24.5478 C   0  0  0  0  0  0  0  0  0  0  0  0
    9.7141   -4.6219   25.5726 O   0  0  0  0  0  0  0  0  0  0  0  0
    5.8518    0.1757   19.9321 C   0  0  0  0  0  0  0  0  0  0  0  0
    6.2405    0.1349   18.4839 C   0  0  0  0  0  0  0  0  0  0  0  0
    5.3891    0.8241   17.4591 N   0  0  0  0  0  0  0  0  0  0  0  0
    4.1490    1.5540   17.8825 C   0  0  0  0  0  0  0  0  0  0  0  0
    3.7602    1.5948   19.3307 C   0  0  0  0  0  0  0  0  0  0  0  0
    2.5201    2.3248   19.7541 C   0  0  0  0  0  0  0  0  0  0  0  0
    2.1314    2.3656   21.2023 C   0  0  0  0  0  0  0  0  0  0  0  0
    2.9828    1.6764   22.2270 C   0  0  0  0  0  0  0  0  0  0  0  0
    4.2229    0.9464   21.8037 C   0  0  0  0  0  0  0  0  0  0  0  0
    4.6116    0.9057   20.3555 C   0  0  0  0  0  0  0  0  0  0  0  0
  5  6  1  0  0  0
  6  7  1  0  0  0
  7  8  1  0  0  0
  8  1  1  0  0  0
  1  2  2  0  0  0
  1  3  1  0  0  0
  3 18  1  0  0  0
 18 19  2  0  0  0
 19 20  1  0  0  0
 20 21  2  0  0  0
 21 22  1  0  0  0
 22 23  2  0  0  0
 23 24  1  0  0  0
 24 25  2  0  0  0
 25 26  1  0  0  0
 26 27  2  0  0  0
  8  9  1  0  0  0
  9 10  2  0  0  0
 10 11  1  0  0  0
 11 12  1  0  0  0
 11 13  2  0  0  0
 13 14  1  0  0  0
 14 15  2  0  0  0
 15 16  1  0  0  0
 16 17  2  0  0  0
 16  6  1  0  0  0
 27 18  1  0  0  0
 15  9  1  0  0  0
 27 22  1  0  0  0
  3  4  1  0  0  0
M  END
> <minimizedAffinity>
-7.12436

> <CNNscore>
0.3246990144

> <CNNaffinity>
5.5947198868

> <CNN_VS>
1.8166000843

> <CNNaffinity_variance>
0.0315830410

$$$$
