


 27 30  0  0  0  0  0  0  0  0999 V2000
   -6.1059   -3.6734  -21.7883 C   0  0  0  0  0  0  0  0  0  0  0  0
   -5.3396   -4.3054  -20.6642 O   0  0  0  0  0  0  0  0  0  0  0  0
   -6.4236   -2.2080  -21.7487 N   0  0  0  0  0  0  0  0  0  0  0  0
   -6.9265   -1.7932  -22.4864 H   0  0  0  0  0  0  0  0  0  0  0  0
   -5.1684   -7.4134  -25.2716 C   0  0  0  0  0  0  0  0  0  0  0  0
   -6.0859   -6.3769  -24.6935 N   0  0  0  0  0  0  0  0  0  0  0  0
   -5.6372   -5.5434  -23.5299 C   0  0  0  0  0  0  0  0  0  0  0  0
   -6.5545   -4.5069  -22.9519 C   0  0  0  0  0  0  0  0  0  0  0  0
   -7.9206   -4.3039  -23.5374 C   0  0  0  0  0  0  0  0  0  0  0  0
   -8.8379   -3.2675  -22.9593 C   0  0  0  0  0  0  0  0  0  0  0  0
  -10.2039   -3.0645  -23.5449 C   0  0  0  0  0  0  0  0  0  0  0  0
  -11.1213   -2.0280  -22.9668 Cl  0  0  0  0  0  0  0  0  0  0  0  0
  -10.6525   -3.8981  -24.7085 C   0  0  0  0  0  0  0  0  0  0  0  0
   -9.7352   -4.9345  -25.2865 C   0  0  0  0  0  0  0  0  0  0  0  0
   -8.3692   -5.1375  -24.7010 C   0  0  0  0  0  0  0  0  0  0  0  0
   -7.4518   -6.1740  -25.2791 C   0  0  0  0  0  0  0  0  0  0  0  0
   -7.9005   -7.0075  -26.4427 O   0  0  0  0  0  0  0  0  0  0  0  0
   -5.9749   -1.3745  -20.5851 C   0  0  0  0  0  0  0  0  0  0  0  0
   -6.6317   -1.5396  -19.2467 C   0  0  0  0  0  0  0  0  0  0  0  0
   -6.1831   -0.7061  -18.0831 N   0  0  0  0  0  0  0  0  0  0  0  0
   -5.0776    0.2926  -18.2579 C   0  0  0  0  0  0  0  0  0  0  0  0
   -4.4208    0.4578  -19.5963 C   0  0  0  0  0  0  0  0  0  0  0  0
   -3.3154    1.4565  -19.7711 C   0  0  0  0  0  0  0  0  0  0  0  0
   -2.6586    1.6216  -21.1095 C   0  0  0  0  0  0  0  0  0  0  0  0
   -3.1072    0.7881  -22.2731 C   0  0  0  0  0  0  0  0  0  0  0  0
   -4.2126   -0.2106  -22.0983 C   0  0  0  0  0  0  0  0  0  0  0  0
   -4.8694   -0.3757  -20.7599 C   0  0  0  0  0  0  0  0  0  0  0  0
  5  6  1  0  0  0
  6  7  1  0  0  0
  7  8  1  0  0  0
  8  1  1  0  0  0
  1  2  2  0  0  0
  1  3  1  0  0  0
  3 18  1  0  0  0
 18 19  2  0  0  0
 19 20  1  0  0  0
 20 21  2  0  0  0
 21 22  1  0  0  0
 22 23  2  0  0  0
 23 24  1  0  0  0
 24 25  2  0  0  0
 25 26  1  0  0  0
 26 27  2  0  0  0
  8  9  1  0  0  0
  9 10  2  0  0  0
 10 11  1  0  0  0
 11 12  1  0  0  0
 11 13  2  0  0  0
 13 14  1  0  0  0
 14 15  2  0  0  0
 15 16  1  0  0  0
 16 17  2  0  0  0
 16  6  1  0  0  0
 27 18  1  0  0  0
 15  9  1  0  0  0
 27 22  1  0  0  0
  3  4  1  0  0  0
M  END
> <minimizedAffinity>
-8.55416

> <CNNscore>
0.7309580445

> <CNNaffinity>
5.8226108551

> <CNN_VS>
4.2560844421

> <CNNaffinity_variance>
0.1556851268

$$$$



 27 30  0  0  0  0  0  0  0  0999 V2000
   -6.7446   -2.2389  -22.4862 C   0  0  0  0  0  0  0  0  0  0  0  0
   -7.6887   -1.1024  -22.2267 O   0  0  0  0  0  0  0  0  0  0  0  0
   -5.5519   -2.4405  -21.5993 N   0  0  0  0  0  0  0  0  0  0  0  0
   -4.9323   -3.1864  -21.7696 H   0  0  0  0  0  0  0  0  0  0  0  0
   -8.2258   -3.0363  -27.4025 C   0  0  0  0  0  0  0  0  0  0  0  0
   -7.7340   -3.5725  -26.0907 N   0  0  0  0  0  0  0  0  0  0  0  0
   -7.4852   -2.6377  -24.9443 C   0  0  0  0  0  0  0  0  0  0  0  0
   -6.9934   -3.1737  -23.6326 C   0  0  0  0  0  0  0  0  0  0  0  0
   -6.7504   -4.6447  -23.4672 C   0  0  0  0  0  0  0  0  0  0  0  0
   -6.2586   -5.1808  -22.1554 C   0  0  0  0  0  0  0  0  0  0  0  0
   -6.0156   -6.6517  -21.9901 C   0  0  0  0  0  0  0  0  0  0  0  0
   -5.5238   -7.1878  -20.6783 Cl  0  0  0  0  0  0  0  0  0  0  0  0
   -6.2644   -7.5865  -23.1365 C   0  0  0  0  0  0  0  0  0  0  0  0
   -6.7562   -7.0504  -24.4482 C   0  0  0  0  0  0  0  0  0  0  0  0
   -6.9992   -5.5795  -24.6136 C   0  0  0  0  0  0  0  0  0  0  0  0
   -7.4910   -5.0434  -25.9254 C   0  0  0  0  0  0  0  0  0  0  0  0
   -7.7398   -5.9782  -27.0718 O   0  0  0  0  0  0  0  0  0  0  0  0
   -5.3031   -1.5057  -20.4529 C   0  0  0  0  0  0  0  0  0  0  0  0
   -5.8560   -1.8209  -19.0946 C   0  0  0  0  0  0  0  0  0  0  0  0
   -5.6072   -0.8860  -17.9482 N   0  0  0  0  0  0  0  0  0  0  0  0
   -4.8055    0.3639  -18.1601 C   0  0  0  0  0  0  0  0  0  0  0  0
   -4.2526    0.6791  -19.5184 C   0  0  0  0  0  0  0  0  0  0  0  0
   -3.4510    1.9290  -19.7303 C   0  0  0  0  0  0  0  0  0  0  0  0
   -2.8981    2.2442  -21.0886 C   0  0  0  0  0  0  0  0  0  0  0  0
   -3.1469    1.3094  -22.2350 C   0  0  0  0  0  0  0  0  0  0  0  0
   -3.9485    0.0594  -22.0231 C   0  0  0  0  0  0  0  0  0  0  0  0
   -4.5014   -0.2557  -20.6648 C   0  0  0  0  0  0  0  0  0  0  0  0
  5  6  1  0  0  0
  6  7  1  0  0  0
  7  8  1  0  0  0
  8  1  1  0  0  0
  1  2  2  0  0  0
  1  3  1  0  0  0
  3 18  1  0  0  0
 18 19  2  0  0  0
 19 20  1  0  0  0
 20 21  2  0  0  0
 21 22  1  0  0  0
 22 23  2  0  0  0
 23 24  1  0  0  0
 24 25  2  0  0  0
 25 26  1  0  0  0
 26 27  2  0  0  0
  8  9  1  0  0  0
  9 10  2  0  0  0
 10 11  1  0  0  0
 11 12  1  0  0  0
 11 13  2  0  0  0
 13 14  1  0  0  0
 14 15  2  0  0  0
 15 16  1  0  0  0
 16 17  2  0  0  0
 16  6  1  0  0  0
 27 18  1  0  0  0
 15  9  1  0  0  0
 27 22  1  0  0  0
  3  4  1  0  0  0
M  END
> <minimizedAffinity>
-7.79246

> <CNNscore>
0.6439000368

> <CNNaffinity>
5.6766762733

> <CNN_VS>
3.6552121639

> <CNNaffinity_variance>
0.2556689978

$$$$



 27 30  0  0  0  0  0  0  0  0999 V2000
   -6.3263   -2.9182  -22.4142 C   0  0  0  0  0  0  0  0  0  0  0  0
   -5.7183   -3.7967  -21.3613 O   0  0  0  0  0  0  0  0  0  0  0  0
   -6.4962   -1.4498  -22.1593 N   0  0  0  0  0  0  0  0  0  0  0  0
   -6.8953   -0.8732  -22.8504 H   0  0  0  0  0  0  0  0  0  0  0  0
   -5.1604   -5.1445  -26.9622 C   0  0  0  0  0  0  0  0  0  0  0  0
   -6.1815   -4.6212  -25.9959 N   0  0  0  0  0  0  0  0  0  0  0  0
   -5.7434   -4.0313  -24.6882 C   0  0  0  0  0  0  0  0  0  0  0  0
   -6.7644   -3.5081  -23.7219 C   0  0  0  0  0  0  0  0  0  0  0  0
   -8.2235   -3.5747  -24.0633 C   0  0  0  0  0  0  0  0  0  0  0  0
   -9.2445   -3.0514  -23.0971 C   0  0  0  0  0  0  0  0  0  0  0  0
  -10.7036   -3.1180  -23.4385 C   0  0  0  0  0  0  0  0  0  0  0  0
  -11.7247   -2.5948  -22.4722 Cl  0  0  0  0  0  0  0  0  0  0  0  0
  -11.1417   -3.7079  -24.7463 C   0  0  0  0  0  0  0  0  0  0  0  0
  -10.1207   -4.2312  -25.7125 C   0  0  0  0  0  0  0  0  0  0  0  0
   -8.6616   -4.1646  -25.3711 C   0  0  0  0  0  0  0  0  0  0  0  0
   -7.6405   -4.6879  -26.3373 C   0  0  0  0  0  0  0  0  0  0  0  0
   -8.0786   -5.2777  -27.6451 O   0  0  0  0  0  0  0  0  0  0  0  0
   -6.0582   -0.8599  -20.8516 C   0  0  0  0  0  0  0  0  0  0  0  0
   -6.8498   -1.1267  -19.6058 C   0  0  0  0  0  0  0  0  0  0  0  0
   -6.4118   -0.5368  -18.2981 N   0  0  0  0  0  0  0  0  0  0  0  0
   -5.1820    0.3199  -18.2362 C   0  0  0  0  0  0  0  0  0  0  0  0
   -4.3903    0.5866  -19.4820 C   0  0  0  0  0  0  0  0  0  0  0  0
   -3.1606    1.4433  -19.4201 C   0  0  0  0  0  0  0  0  0  0  0  0
   -2.3689    1.7100  -20.6659 C   0  0  0  0  0  0  0  0  0  0  0  0
   -2.8070    1.1201  -21.9737 C   0  0  0  0  0  0  0  0  0  0  0  0
   -4.0367    0.2635  -22.0356 C   0  0  0  0  0  0  0  0  0  0  0  0
   -4.8284   -0.0033  -20.7898 C   0  0  0  0  0  0  0  0  0  0  0  0
  5  6  1  0  0  0
  6  7  1  0  0  0
  7  8  1  0  0  0
  8  1  1  0  0  0
  1  2  2  0  0  0
  1  3  1  0  0  0
  3 18  1  0  0  0
 18 19  2  0  0  0
 19 20  1  0  0  0
 20 21  2  0  0  0
 21 22  1  0  0  0
 22 23  2  0  0  0
 23 24  1  0  0  0
 24 25  2  0  0  0
 25 26  1  0  0  0
 26 27  2  0  0  0
  8  9  1  0  0  0
  9 10  2  0  0  0
 10 11  1  0  0  0
 11 12  1  0  0  0
 11 13  2  0  0  0
 13 14  1  0  0  0
 14 15  2  0  0  0
 15 16  1  0  0  0
 16 17  2  0  0  0
 16  6  1  0  0  0
 27 18  1  0  0  0
 15  9  1  0  0  0
 27 22  1  0  0  0
  3  4  1  0  0  0
M  END
> <minimizedAffinity>
-7.60799

> <CNNscore>
0.5002881885

> <CNNaffinity>
5.5989141464

> <CNN_VS>
2.8010706902

> <CNNaffinity_variance>
0.1724875271

$$$$



 27 30  0  0  0  0  0  0  0  0999 V2000
   -8.5155   -2.0399  -22.9948 C   0  0  0  0  0  0  0  0  0  0  0  0
   -9.2042   -2.9566  -22.0277 O   0  0  0  0  0  0  0  0  0  0  0  0
   -7.1788   -2.4156  -23.5624 N   0  0  0  0  0  0  0  0  0  0  0  0
   -6.7268   -1.8139  -24.1972 H   0  0  0  0  0  0  0  0  0  0  0  0
   -8.1244    2.8430  -24.7284 C   0  0  0  0  0  0  0  0  0  0  0  0
   -8.9680    1.6940  -24.2611 N   0  0  0  0  0  0  0  0  0  0  0  0
   -8.3200    0.4015  -23.8616 C   0  0  0  0  0  0  0  0  0  0  0  0
   -9.1635   -0.7474  -23.3943 C   0  0  0  0  0  0  0  0  0  0  0  0
  -10.6551   -0.6039  -23.3266 C   0  0  0  0  0  0  0  0  0  0  0  0
  -11.4986   -1.7528  -22.8593 C   0  0  0  0  0  0  0  0  0  0  0  0
  -12.9902   -1.6093  -22.7916 C   0  0  0  0  0  0  0  0  0  0  0  0
  -13.8338   -2.7583  -22.3243 Cl  0  0  0  0  0  0  0  0  0  0  0  0
  -13.6382   -0.3169  -23.1911 C   0  0  0  0  0  0  0  0  0  0  0  0
  -12.7947    0.8321  -23.6583 C   0  0  0  0  0  0  0  0  0  0  0  0
  -11.3032    0.6885  -23.7261 C   0  0  0  0  0  0  0  0  0  0  0  0
  -10.4595    1.8375  -24.1934 C   0  0  0  0  0  0  0  0  0  0  0  0
  -11.1076    3.1300  -24.5929 O   0  0  0  0  0  0  0  0  0  0  0  0
   -6.5308   -3.7080  -23.1629 C   0  0  0  0  0  0  0  0  0  0  0  0
   -6.0296   -3.8939  -21.7614 C   0  0  0  0  0  0  0  0  0  0  0  0
   -5.3816   -5.1864  -21.3619 N   0  0  0  0  0  0  0  0  0  0  0  0
   -5.2347   -6.2929  -22.3639 C   0  0  0  0  0  0  0  0  0  0  0  0
   -5.7359   -6.1070  -23.7654 C   0  0  0  0  0  0  0  0  0  0  0  0
   -5.5891   -7.2136  -24.7674 C   0  0  0  0  0  0  0  0  0  0  0  0
   -6.0903   -7.0276  -26.1689 C   0  0  0  0  0  0  0  0  0  0  0  0
   -6.7383   -5.7352  -26.5684 C   0  0  0  0  0  0  0  0  0  0  0  0
   -6.8851   -4.6286  -25.5664 C   0  0  0  0  0  0  0  0  0  0  0  0
   -6.3840   -4.8146  -24.1650 C   0  0  0  0  0  0  0  0  0  0  0  0
  5  6  1  0  0  0
  6  7  1  0  0  0
  7  8  1  0  0  0
  8  1  1  0  0  0
  1  2  2  0  0  0
  1  3  1  0  0  0
  3 18  1  0  0  0
 18 19  2  0  0  0
 19 20  1  0  0  0
 20 21  2  0  0  0
 21 22  1  0  0  0
 22 23  2  0  0  0
 23 24  1  0  0  0
 24 25  2  0  0  0
 25 26  1  0  0  0
 26 27  2  0  0  0
  8  9  1  0  0  0
  9 10  2  0  0  0
 10 11  1  0  0  0
 11 12  1  0  0  0
 11 13  2  0  0  0
 13 14  1  0  0  0
 14 15  2  0  0  0
 15 16  1  0  0  0
 16 17  2  0  0  0
 16  6  1  0  0  0
 27 18  1  0  0  0
 15  9  1  0  0  0
 27 22  1  0  0  0
  3  4  1  0  0  0
M  END
> <minimizedAffinity>
-6.88158

> <CNNscore>
0.3565151393

> <CNNaffinity>
5.5703568459

> <CNN_VS>
1.9859164953

> <CNNaffinity_variance>
0.0681994334

$$$$



 27 30  0  0  0  0  0  0  0  0999 V2000
  -10.0534    0.4437  -23.4065 C   0  0  0  0  0  0  0  0  0  0  0  0
  -11.0159   -0.1863  -24.3692 O   0  0  0  0  0  0  0  0  0  0  0  0
  -10.2882    1.8426  -22.9186 N   0  0  0  0  0  0  0  0  0  0  0  0
   -9.6565    2.2560  -22.2867 H   0  0  0  0  0  0  0  0  0  0  0  0
   -7.7149   -4.0935  -22.4342 C   0  0  0  0  0  0  0  0  0  0  0  0
   -7.6868   -2.5937  -22.4456 N   0  0  0  0  0  0  0  0  0  0  0  0
   -8.8841   -1.8248  -22.9203 C   0  0  0  0  0  0  0  0  0  0  0  0
   -8.8561   -0.3252  -22.9317 C   0  0  0  0  0  0  0  0  0  0  0  0
   -7.6308    0.4057  -22.4684 C   0  0  0  0  0  0  0  0  0  0  0  0
   -7.6029    1.9054  -22.4798 C   0  0  0  0  0  0  0  0  0  0  0  0
   -6.3776    2.6361  -22.0165 C   0  0  0  0  0  0  0  0  0  0  0  0
   -6.3496    4.1359  -22.0279 Cl  0  0  0  0  0  0  0  0  0  0  0  0
   -5.1804    1.8673  -21.5418 C   0  0  0  0  0  0  0  0  0  0  0  0
   -5.2084    0.3676  -21.5303 C   0  0  0  0  0  0  0  0  0  0  0  0
   -6.4336   -0.3632  -21.9937 C   0  0  0  0  0  0  0  0  0  0  0  0
   -6.4616   -1.8629  -21.9823 C   0  0  0  0  0  0  0  0  0  0  0  0
   -5.2644   -2.6318  -21.5075 O   0  0  0  0  0  0  0  0  0  0  0  0
  -11.4854    2.6114  -23.3933 C   0  0  0  0  0  0  0  0  0  0  0  0
  -12.7735    2.5416  -22.6278 C   0  0  0  0  0  0  0  0  0  0  0  0
  -13.9707    3.3105  -23.1026 N   0  0  0  0  0  0  0  0  0  0  0  0
  -13.8800    4.1492  -24.3428 C   0  0  0  0  0  0  0  0  0  0  0  0
  -12.5919    4.2191  -25.1084 C   0  0  0  0  0  0  0  0  0  0  0  0
  -12.5011    5.0578  -26.3486 C   0  0  0  0  0  0  0  0  0  0  0  0
  -11.2130    5.1277  -27.1141 C   0  0  0  0  0  0  0  0  0  0  0  0
  -10.0158    4.3588  -26.6394 C   0  0  0  0  0  0  0  0  0  0  0  0
  -10.1066    3.5201  -25.3991 C   0  0  0  0  0  0  0  0  0  0  0  0
  -11.3946    3.4502  -24.6336 C   0  0  0  0  0  0  0  0  0  0  0  0
  5  6  1  0  0  0
  6  7  1  0  0  0
  7  8  1  0  0  0
  8  1  1  0  0  0
  1  2  2  0  0  0
  1  3  1  0  0  0
  3 18  1  0  0  0
 18 19  2  0  0  0
 19 20  1  0  0  0
 20 21  2  0  0  0
 21 22  1  0  0  0
 22 23  2  0  0  0
 23 24  1  0  0  0
 24 25  2  0  0  0
 25 26  1  0  0  0
 26 27  2  0  0  0
  8  9  1  0  0  0
  9 10  2  0  0  0
 10 11  1  0  0  0
 11 12  1  0  0  0
 11 13  2  0  0  0
 13 14  1  0  0  0
 14 15  2  0  0  0
 15 16  1  0  0  0
 16 17  2  0  0  0
 16  6  1  0  0  0
 27 18  1  0  0  0
 15  9  1  0  0  0
 27 22  1  0  0  0
  3  4  1  0  0  0
M  END
> <minimizedAffinity>
-6.84189

> <CNNscore>
0.3410403132

> <CNNaffinity>
5.4458184242

> <CNN_VS>
1.8572436571

> <CNNaffinity_variance>
0.1759095192

$$$$



 27 30  0  0  0  0  0  0  0  0999 V2000
   -6.3344   -2.9684  -22.2320 C   0  0  0  0  0  0  0  0  0  0  0  0
   -5.4366   -3.7207  -21.2948 O   0  0  0  0  0  0  0  0  0  0  0  0
   -6.7370   -1.5587  -21.9151 N   0  0  0  0  0  0  0  0  0  0  0  0
   -7.3262   -1.0649  -22.5301 H   0  0  0  0  0  0  0  0  0  0  0  0
   -8.6332   -6.9795  -24.6040 C   0  0  0  0  0  0  0  0  0  0  0  0
   -7.9788   -5.6314  -24.6720 N   0  0  0  0  0  0  0  0  0  0  0  0
   -7.4838   -4.9739  -23.4180 C   0  0  0  0  0  0  0  0  0  0  0  0
   -6.8294   -3.6259  -23.4860 C   0  0  0  0  0  0  0  0  0  0  0  0
   -6.6701   -2.9353  -24.8081 C   0  0  0  0  0  0  0  0  0  0  0  0
   -6.0158   -1.5873  -24.8761 C   0  0  0  0  0  0  0  0  0  0  0  0
   -5.8565   -0.8968  -26.1981 C   0  0  0  0  0  0  0  0  0  0  0  0
   -5.2022    0.4513  -26.2661 Cl  0  0  0  0  0  0  0  0  0  0  0  0
   -6.3516   -1.5543  -27.4521 C   0  0  0  0  0  0  0  0  0  0  0  0
   -7.0059   -2.9023  -27.3841 C   0  0  0  0  0  0  0  0  0  0  0  0
   -7.1652   -3.5928  -26.0621 C   0  0  0  0  0  0  0  0  0  0  0  0
   -7.8196   -4.9409  -25.9941 C   0  0  0  0  0  0  0  0  0  0  0  0
   -8.3147   -5.5984  -27.2481 O   0  0  0  0  0  0  0  0  0  0  0  0
   -6.2419   -0.9012  -20.6610 C   0  0  0  0  0  0  0  0  0  0  0  0
   -6.9900   -1.0823  -19.3736 C   0  0  0  0  0  0  0  0  0  0  0  0
   -6.4949   -0.4248  -18.1196 N   0  0  0  0  0  0  0  0  0  0  0  0
   -5.2517    0.4139  -18.1530 C   0  0  0  0  0  0  0  0  0  0  0  0
   -4.5036    0.5950  -19.4404 C   0  0  0  0  0  0  0  0  0  0  0  0
   -3.2604    1.4337  -19.4738 C   0  0  0  0  0  0  0  0  0  0  0  0
   -2.5123    1.6149  -20.7613 C   0  0  0  0  0  0  0  0  0  0  0  0
   -3.0074    0.9574  -22.0153 C   0  0  0  0  0  0  0  0  0  0  0  0
   -4.2506    0.1187  -21.9819 C   0  0  0  0  0  0  0  0  0  0  0  0
   -4.9987   -0.0625  -20.6945 C   0  0  0  0  0  0  0  0  0  0  0  0
  5  6  1  0  0  0
  6  7  1  0  0  0
  7  8  1  0  0  0
  8  1  1  0  0  0
  1  2  2  0  0  0
  1  3  1  0  0  0
  3 18  1  0  0  0
 18 19  2  0  0  0
 19 20  1  0  0  0
 20 21  2  0  0  0
 21 22  1  0  0  0
 22 23  2  0  0  0
 23 24  1  0  0  0
 24 25  2  0  0  0
 25 26  1  0  0  0
 26 27  2  0  0  0
  8  9  1  0  0  0
  9 10  2  0  0  0
 10 11  1  0  0  0
 11 12  1  0  0  0
 11 13  2  0  0  0
 13 14  1  0  0  0
 14 15  2  0  0  0
 15 16  1  0  0  0
 16 17  2  0  0  0
 16  6  1  0  0  0
 27 18  1  0  0  0
 15  9  1  0  0  0
 27 22  1  0  0  0
  3  4  1  0  0  0
M  END
> <minimizedAffinity>
-6.80461

> <CNNscore>
0.3341993093

> <CNNaffinity>
5.4235258102

> <CNN_VS>
1.8125386238

> <CNNaffinity_variance>
0.0500953384

$$$$



 27 30  0  0  0  0  0  0  0  0999 V2000
   -6.4905   -3.2760  -21.8770 C   0  0  0  0  0  0  0  0  0  0  0  0
   -5.4291   -3.9305  -21.0432 O   0  0  0  0  0  0  0  0  0  0  0  0
   -6.9054   -1.8635  -21.5894 N   0  0  0  0  0  0  0  0  0  0  0  0
   -7.6020   -1.4339  -22.1367 H   0  0  0  0  0  0  0  0  0  0  0  0
  -10.4946   -3.9784  -25.1133 C   0  0  0  0  0  0  0  0  0  0  0  0
   -9.1390   -4.3852  -24.6165 N   0  0  0  0  0  0  0  0  0  0  0  0
   -8.4925   -3.6272  -23.4952 C   0  0  0  0  0  0  0  0  0  0  0  0
   -7.1369   -4.0340  -22.9984 C   0  0  0  0  0  0  0  0  0  0  0  0
   -6.4277   -5.1989  -23.6230 C   0  0  0  0  0  0  0  0  0  0  0  0
   -5.0721   -5.6058  -23.1262 C   0  0  0  0  0  0  0  0  0  0  0  0
   -4.3630   -6.7706  -23.7508 C   0  0  0  0  0  0  0  0  0  0  0  0
   -3.0073   -7.1775  -23.2540 Cl  0  0  0  0  0  0  0  0  0  0  0  0
   -5.0094   -7.5287  -24.8722 C   0  0  0  0  0  0  0  0  0  0  0  0
   -6.3650   -7.1219  -25.3689 C   0  0  0  0  0  0  0  0  0  0  0  0
   -7.0742   -5.9570  -24.7444 C   0  0  0  0  0  0  0  0  0  0  0  0
   -8.4298   -5.5501  -25.2411 C   0  0  0  0  0  0  0  0  0  0  0  0
   -9.0763   -6.3082  -26.3625 O   0  0  0  0  0  0  0  0  0  0  0  0
   -6.2589   -1.1054  -20.4681 C   0  0  0  0  0  0  0  0  0  0  0  0
   -6.8233   -1.1920  -19.0810 C   0  0  0  0  0  0  0  0  0  0  0  0
   -6.1768   -0.4339  -17.9597 N   0  0  0  0  0  0  0  0  0  0  0  0
   -4.9661    0.4107  -18.2253 C   0  0  0  0  0  0  0  0  0  0  0  0
   -4.4016    0.4972  -19.6125 C   0  0  0  0  0  0  0  0  0  0  0  0
   -3.1909    1.3418  -19.8782 C   0  0  0  0  0  0  0  0  0  0  0  0
   -2.6265    1.4283  -21.2652 C   0  0  0  0  0  0  0  0  0  0  0  0
   -3.2730    0.6703  -22.3866 C   0  0  0  0  0  0  0  0  0  0  0  0
   -4.4837   -0.1743  -22.1209 C   0  0  0  0  0  0  0  0  0  0  0  0
   -5.0481   -0.2608  -20.7338 C   0  0  0  0  0  0  0  0  0  0  0  0
  5  6  1  0  0  0
  6  7  1  0  0  0
  7  8  1  0  0  0
  8  1  1  0  0  0
  1  2  2  0  0  0
  1  3  1  0  0  0
  3 18  1  0  0  0
 18 19  2  0  0  0
 19 20  1  0  0  0
 20 21  2  0  0  0
 21 22  1  0  0  0
 22 23  2  0  0  0
 23 24  1  0  0  0
 24 25  2  0  0  0
 25 26  1  0  0  0
 26 27  2  0  0  0
  8  9  1  0  0  0
  9 10  2  0  0  0
 10 11  1  0  0  0
 11 12  1  0  0  0
 11 13  2  0  0  0
 13 14  1  0  0  0
 14 15  2  0  0  0
 15 16  1  0  0  0
 16 17  2  0  0  0
 16  6  1  0  0  0
 27 18  1  0  0  0
 15  9  1  0  0  0
 27 22  1  0  0  0
  3  4  1  0  0  0
M  END
> <minimizedAffinity>
-7.93955

> <CNNscore>
0.3327466547

> <CNNaffinity>
5.3936667442

> <CNN_VS>
1.7947245836

> <CNNaffinity_variance>
0.1195803285

$$$$



 27 30  0  0  0  0  0  0  0  0999 V2000
   -7.1304   -0.9699  -21.7118 C   0  0  0  0  0  0  0  0  0  0  0  0
   -7.6538   -0.2078  -20.5304 O   0  0  0  0  0  0  0  0  0  0  0  0
   -5.6810   -0.8720  -22.0851 N   0  0  0  0  0  0  0  0  0  0  0  0
   -5.3375   -1.3722  -22.8604 H   0  0  0  0  0  0  0  0  0  0  0  0
   -8.1617   -5.4718  -24.0927 C   0  0  0  0  0  0  0  0  0  0  0  0
   -8.5723   -4.0807  -23.7101 N   0  0  0  0  0  0  0  0  0  0  0  0
   -7.6461   -3.2208  -22.9022 C   0  0  0  0  0  0  0  0  0  0  0  0
   -8.0566   -1.8298  -22.5196 C   0  0  0  0  0  0  0  0  0  0  0  0
   -9.3934   -1.2986  -22.9450 C   0  0  0  0  0  0  0  0  0  0  0  0
   -9.8040    0.0925  -22.5624 C   0  0  0  0  0  0  0  0  0  0  0  0
  -11.1407    0.6236  -22.9877 C   0  0  0  0  0  0  0  0  0  0  0  0
  -11.5514    2.0147  -22.6052 Cl  0  0  0  0  0  0  0  0  0  0  0  0
  -12.0669   -0.2363  -23.7956 C   0  0  0  0  0  0  0  0  0  0  0  0
  -11.6564   -1.6274  -24.1782 C   0  0  0  0  0  0  0  0  0  0  0  0
  -10.3196   -2.1585  -23.7529 C   0  0  0  0  0  0  0  0  0  0  0  0
   -9.9090   -3.5496  -24.1354 C   0  0  0  0  0  0  0  0  0  0  0  0
  -10.8352   -4.4095  -24.9433 O   0  0  0  0  0  0  0  0  0  0  0  0
   -4.7548   -0.0121  -21.2772 C   0  0  0  0  0  0  0  0  0  0  0  0
   -5.0350    0.2329  -19.8242 C   0  0  0  0  0  0  0  0  0  0  0  0
   -4.1088    1.0928  -19.0163 N   0  0  0  0  0  0  0  0  0  0  0  0
   -2.9024    1.7077  -19.6614 C   0  0  0  0  0  0  0  0  0  0  0  0
   -2.6220    1.4627  -21.1145 C   0  0  0  0  0  0  0  0  0  0  0  0
   -1.4156    2.0777  -21.7597 C   0  0  0  0  0  0  0  0  0  0  0  0
   -1.1353    1.8327  -23.2127 C   0  0  0  0  0  0  0  0  0  0  0  0
   -2.0615    0.9728  -24.0206 C   0  0  0  0  0  0  0  0  0  0  0  0
   -3.2680    0.3578  -23.3755 C   0  0  0  0  0  0  0  0  0  0  0  0
   -3.5482    0.6028  -21.9224 C   0  0  0  0  0  0  0  0  0  0  0  0
  5  6  1  0  0  0
  6  7  1  0  0  0
  7  8  1  0  0  0
  8  1  1  0  0  0
  1  2  2  0  0  0
  1  3  1  0  0  0
  3 18  1  0  0  0
 18 19  2  0  0  0
 19 20  1  0  0  0
 20 21  2  0  0  0
 21 22  1  0  0  0
 22 23  2  0  0  0
 23 24  1  0  0  0
 24 25  2  0  0  0
 25 26  1  0  0  0
 26 27  2  0  0  0
  8  9  1  0  0  0
  9 10  2  0  0  0
 10 11  1  0  0  0
 11 12  1  0  0  0
 11 13  2  0  0  0
 13 14  1  0  0  0
 14 15  2  0  0  0
 15 16  1  0  0  0
 16 17  2  0  0  0
 16  6  1  0  0  0
 27 18  1  0  0  0
 15  9  1  0  0  0
 27 22  1  0  0  0
  3  4  1  0  0  0
M  END
> <minimizedAffinity>
-7.17776

> <CNNscore>
0.3031139076

> <CNNaffinity>
5.2554335594

> <CNN_VS>
1.5929950476

> <CNNaffinity_variance>
0.1139500290

$$$$



 27 30  0  0  0  0  0  0  0  0999 V2000
   -8.6242   -1.3119  -23.2293 C   0  0  0  0  0  0  0  0  0  0  0  0
   -8.7874   -1.8941  -21.8566 O   0  0  0  0  0  0  0  0  0  0  0  0
   -8.2357   -2.1956  -24.3775 N   0  0  0  0  0  0  0  0  0  0  0  0
   -8.1286   -1.8135  -25.2784 H   0  0  0  0  0  0  0  0  0  0  0  0
   -6.7313    3.4675  -23.9872 C   0  0  0  0  0  0  0  0  0  0  0  0
   -7.9030    2.5437  -23.8328 N   0  0  0  0  0  0  0  0  0  0  0  0
   -7.6778    1.0778  -23.6083 C   0  0  0  0  0  0  0  0  0  0  0  0
   -8.8494    0.1540  -23.4539 C   0  0  0  0  0  0  0  0  0  0  0  0
  -10.2463    0.6960  -23.5242 C   0  0  0  0  0  0  0  0  0  0  0  0
  -11.4179   -0.2278  -23.3699 C   0  0  0  0  0  0  0  0  0  0  0  0
  -12.8148    0.3143  -23.4401 C   0  0  0  0  0  0  0  0  0  0  0  0
  -13.9865   -0.6096  -23.2858 Cl  0  0  0  0  0  0  0  0  0  0  0  0
  -13.0400    1.7802  -23.6647 C   0  0  0  0  0  0  0  0  0  0  0  0
  -11.8684    2.7040  -23.8190 C   0  0  0  0  0  0  0  0  0  0  0  0
  -10.4716    2.1619  -23.7488 C   0  0  0  0  0  0  0  0  0  0  0  0
   -9.2999    3.0857  -23.9031 C   0  0  0  0  0  0  0  0  0  0  0  0
   -9.5251    4.5516  -24.1277 O   0  0  0  0  0  0  0  0  0  0  0  0
   -8.0105   -3.6615  -24.1529 C   0  0  0  0  0  0  0  0  0  0  0  0
   -7.2642   -4.1282  -22.9383 C   0  0  0  0  0  0  0  0  0  0  0  0
   -7.0390   -5.5941  -22.7137 N   0  0  0  0  0  0  0  0  0  0  0  0
   -7.5600   -6.5933  -23.7037 C   0  0  0  0  0  0  0  0  0  0  0  0
   -8.3063   -6.1266  -24.9183 C   0  0  0  0  0  0  0  0  0  0  0  0
   -8.8274   -7.1257  -25.9083 C   0  0  0  0  0  0  0  0  0  0  0  0
   -9.5736   -6.6590  -27.1229 C   0  0  0  0  0  0  0  0  0  0  0  0
   -9.7989   -5.1931  -27.3475 C   0  0  0  0  0  0  0  0  0  0  0  0
   -9.2778   -4.1940  -26.3575 C   0  0  0  0  0  0  0  0  0  0  0  0
   -8.5316   -4.6607  -25.1429 C   0  0  0  0  0  0  0  0  0  0  0  0
  5  6  1  0  0  0
  6  7  1  0  0  0
  7  8  1  0  0  0
  8  1  1  0  0  0
  1  2  2  0  0  0
  1  3  1  0  0  0
  3 18  1  0  0  0
 18 19  2  0  0  0
 19 20  1  0  0  0
 20 21  2  0  0  0
 21 22  1  0  0  0
 22 23  2  0  0  0
 23 24  1  0  0  0
 24 25  2  0  0  0
 25 26  1  0  0  0
 26 27  2  0  0  0
  8  9  1  0  0  0
  9 10  2  0  0  0
 10 11  1  0  0  0
 11 12  1  0  0  0
 11 13  2  0  0  0
 13 14  1  0  0  0
 14 15  2  0  0  0
 15 16  1  0  0  0
 16 17  2  0  0  0
 16  6  1  0  0  0
 27 18  1  0  0  0
 15  9  1  0  0  0
 27 22  1  0  0  0
  3  4  1  0  0  0
M  END
> <minimizedAffinity>
-6.91840

> <CNNscore>
0.2845153809

> <CNNaffinity>
5.3522305489

> <CNN_VS>
1.5227918625

> <CNNaffinity_variance>
0.1040845141

$$$$
