


 42 47  0  0  0  0  0  0  0  0999 V2000
   -7.0902   -0.9315  -23.2052 N   0  0  0  0  0  0  0  0  0  0  0  0
   -7.5406    0.4875  -23.3888 C   0  0  0  0  0  0  0  0  0  0  0  0
   -9.0048    0.8108  -23.4257 C   0  0  0  0  0  0  0  0  0  0  0  0
  -10.4271    1.2841  -23.4823 C   0  0  0  0  0  0  0  0  0  0  0  0
  -11.5578    0.8436  -23.4206 O   0  0  0  0  0  0  0  0  0  0  0  0
  -10.4133    2.7714  -23.6765 N   0  0  0  0  0  0  0  0  0  0  0  0
   -8.9825    3.2174  -23.7399 C   0  0  0  0  0  0  0  0  0  0  0  0
   -8.1121    2.0056  -23.5849 C   0  0  0  0  0  0  0  0  0  0  0  0
  -10.0188   -0.2849  -23.2789 C   0  0  0  0  0  0  0  0  0  0  0  0
  -11.4830    0.0384  -23.3158 C   0  0  0  0  0  0  0  0  0  0  0  0
  -12.4969   -1.0572  -23.1690 C   0  0  0  0  0  0  0  0  0  0  0  0
  -13.9612   -0.7340  -23.2059 Cl  0  0  0  0  0  0  0  0  0  0  0  0
  -12.0465   -2.4762  -22.9854 C   0  0  0  0  0  0  0  0  0  0  0  0
  -10.5823   -2.7995  -22.9486 C   0  0  0  0  0  0  0  0  0  0  0  0
   -9.5684   -1.7038  -23.0953 C   0  0  0  0  0  0  0  0  0  0  0  0
   -8.1041   -2.0271  -23.0585 C   0  0  0  0  0  0  0  0  0  0  0  0
   -7.6537   -3.4461  -22.8748 O   0  0  0  0  0  0  0  0  0  0  0  0
  -11.6187    3.6572  -23.7878 C   0  0  0  0  0  0  0  0  0  0  0  0
  -12.5094    3.8646  -22.5987 C   0  0  0  0  0  0  0  0  0  0  0  0
  -13.7147    4.7505  -22.7100 N   0  0  0  0  0  0  0  0  0  0  0  0
  -14.0294    5.4289  -24.0103 C   0  0  0  0  0  0  0  0  0  0  0  0
  -13.1387    5.2215  -25.1993 C   0  0  0  0  0  0  0  0  0  0  0  0
  -13.4535    5.9000  -26.4996 C   0  0  0  0  0  0  0  0  0  0  0  0
  -12.5628    5.6925  -27.6885 C   0  0  0  0  0  0  0  0  0  0  0  0
  -11.3574    4.8067  -27.5773 C   0  0  0  0  0  0  0  0  0  0  0  0
  -11.0427    4.1283  -26.2770 C   0  0  0  0  0  0  0  0  0  0  0  0
  -11.9334    4.3357  -25.0880 C   0  0  0  0  0  0  0  0  0  0  0  0
   -5.6259   -1.2547  -23.1683 C   0  0  0  0  0  0  0  0  0  0  0  0
   -2.9502   -0.3377  -25.9522 C   0  0  0  0  0  0  0  0  0  0  0  0
   -3.7414   -0.2965  -24.6785 N   0  0  0  0  0  0  0  0  0  0  0  0
   -4.8346   -1.2960  -24.4420 C   0  0  0  0  0  0  0  0  0  0  0  0
   -5.1367   -2.3367  -25.4792 O   0  0  0  0  0  0  0  0  0  0  0  0
   -3.5432    0.3865  -23.9978 H   0  0  0  0  0  0  0  0  0  0  0  0
   -6.6121    1.9913  -23.5885 C   0  0  0  0  0  0  0  0  0  0  0  0
   -5.8502    3.0401  -22.8340 N   0  0  0  0  0  0  0  0  0  0  0  0
   -6.0197    3.9938  -23.0101 H   0  0  0  0  0  0  0  0  0  0  0  0
   -4.8300    2.6360  -21.8113 C   0  0  0  0  0  0  0  0  0  0  0  0
   -3.5083    3.3426  -21.7506 C   0  0  0  0  0  0  0  0  0  0  0  0
   -2.4882    2.9385  -20.7279 C   0  0  0  0  0  0  0  0  0  0  0  0
   -2.7897    1.8277  -19.7659 N   0  0  0  0  0  0  0  0  0  0  0  0
   -4.1114    1.1211  -19.8267 C   0  0  0  0  0  0  0  0  0  0  0  0
   -5.1316    1.5253  -20.8494 N   0  0  0  0  0  0  0  0  0  0  0  0
 29 30  1  0  0  0
 30 31  1  0  0  0
 31 32  2  0  0  0
 31 28  1  0  0  0
 28  1  1  0  0  0
  1  2  1  0  0  0
  3  2  1  0  0  0
  3  4  1  0  0  0
  4  5  2  0  0  0
  4  6  1  0  0  0
  6 18  1  0  0  0
 18 19  2  0  0  0
 19 20  1  0  0  0
 20 21  2  0  0  0
 21 22  1  0  0  0
 22 23  2  0  0  0
 23 24  1  0  0  0
 24 25  2  0  0  0
 25 26  1  0  0  0
 26 27  2  0  0  0
  6  7  1  0  0  0
  7  8  1  0  0  0
  8 34  1  0  0  0
 34 35  1  0  0  0
 35 37  1  0  0  0
 37 38  2  0  0  0
 38 39  1  0  0  0
 39 40  2  0  0  0
 40 41  1  0  0  0
 41 42  2  0  0  0
  3  9  1  0  0  0
  9 10  2  0  0  0
 10 11  1  0  0  0
 11 12  1  0  0  0
 11 13  2  0  0  0
 13 14  1  0  0  0
 14 15  2  0  0  0
 15 16  1  0  0  0
 16 17  2  0  0  0
 16  1  1  0  0  0
  8  3  1  0  0  0
 42 37  1  0  0  0
 15  9  1  0  0  0
 27 18  1  0  0  0
 27 22  1  0  0  0
 30 33  1  0  0  0
 35 36  1  0  0  0
M  END
> <minimizedAffinity>
-7.75647

> <CNNscore>
0.6098245382

> <CNNaffinity>
6.7799859047

> <CNN_VS>
4.1346015930

> <CNNaffinity_variance>
0.1740214527

$$$$



 42 47  0  0  0  0  0  0  0  0999 V2000
   -5.4263   -6.0362  -23.4884 N   0  0  0  0  0  0  0  0  0  0  0  0
   -6.0059   -4.7601  -22.9539 C   0  0  0  0  0  0  0  0  0  0  0  0
   -7.0650   -4.0346  -23.7296 C   0  0  0  0  0  0  0  0  0  0  0  0
   -8.1244   -3.2028  -24.3897 C   0  0  0  0  0  0  0  0  0  0  0  0
   -8.8096   -3.1932  -25.3931 O   0  0  0  0  0  0  0  0  0  0  0  0
   -8.4011   -2.0203  -23.5092 N   0  0  0  0  0  0  0  0  0  0  0  0
   -7.5126   -2.1213  -22.3049 C   0  0  0  0  0  0  0  0  0  0  0  0
   -6.6869   -3.3662  -22.4411 C   0  0  0  0  0  0  0  0  0  0  0  0
   -7.5447   -4.5851  -25.0399 C   0  0  0  0  0  0  0  0  0  0  0  0
   -8.6039   -3.8596  -25.8156 C   0  0  0  0  0  0  0  0  0  0  0  0
   -9.0835   -4.4102  -27.1259 C   0  0  0  0  0  0  0  0  0  0  0  0
  -10.1427   -3.6847  -27.9016 Cl  0  0  0  0  0  0  0  0  0  0  0  0
   -8.5040   -5.6863  -27.6604 C   0  0  0  0  0  0  0  0  0  0  0  0
   -7.4448   -6.4118  -26.8847 C   0  0  0  0  0  0  0  0  0  0  0  0
   -6.9652   -5.8612  -25.5745 C   0  0  0  0  0  0  0  0  0  0  0  0
   -5.9060   -6.5868  -24.7987 C   0  0  0  0  0  0  0  0  0  0  0  0
   -5.3264   -7.8629  -25.3332 O   0  0  0  0  0  0  0  0  0  0  0  0
   -9.3921   -0.9286  -23.7847 C   0  0  0  0  0  0  0  0  0  0  0  0
   -8.9400    0.3512  -24.4233 C   0  0  0  0  0  0  0  0  0  0  0  0
   -9.9311    1.4429  -24.6988 N   0  0  0  0  0  0  0  0  0  0  0  0
  -11.3743    1.2549  -24.3356 C   0  0  0  0  0  0  0  0  0  0  0  0
  -11.8264   -0.0249  -23.6970 C   0  0  0  0  0  0  0  0  0  0  0  0
  -13.2696   -0.2129  -23.3338 C   0  0  0  0  0  0  0  0  0  0  0  0
  -13.7216   -1.4927  -22.6952 C   0  0  0  0  0  0  0  0  0  0  0  0
  -12.7305   -2.5844  -22.4197 C   0  0  0  0  0  0  0  0  0  0  0  0
  -11.2874   -2.3964  -22.7829 C   0  0  0  0  0  0  0  0  0  0  0  0
  -10.8353   -1.1166  -23.4215 C   0  0  0  0  0  0  0  0  0  0  0  0
   -4.3671   -6.7617  -22.7127 C   0  0  0  0  0  0  0  0  0  0  0  0
   -0.9071   -8.5398  -23.4980 C   0  0  0  0  0  0  0  0  0  0  0  0
   -2.2249   -8.2248  -22.8543 N   0  0  0  0  0  0  0  0  0  0  0  0
   -3.0494   -7.0767  -23.3563 C   0  0  0  0  0  0  0  0  0  0  0  0
   -2.5561   -6.2435  -24.5020 O   0  0  0  0  0  0  0  0  0  0  0  0
   -2.5486   -8.7716  -22.1024 H   0  0  0  0  0  0  0  0  0  0  0  0
   -5.6629   -3.8566  -21.4608 C   0  0  0  0  0  0  0  0  0  0  0  0
   -5.7131   -3.4010  -20.0327 N   0  0  0  0  0  0  0  0  0  0  0  0
   -5.9780   -4.0310  -19.3241 H   0  0  0  0  0  0  0  0  0  0  0  0
   -5.3599   -1.9854  -19.6840 C   0  0  0  0  0  0  0  0  0  0  0  0
   -4.6700   -1.1146  -20.6918 C   0  0  0  0  0  0  0  0  0  0  0  0
   -4.3168    0.3008  -20.3433 C   0  0  0  0  0  0  0  0  0  0  0  0
   -4.6535    0.8456  -18.9868 N   0  0  0  0  0  0  0  0  0  0  0  0
   -5.3434   -0.0252  -17.9790 C   0  0  0  0  0  0  0  0  0  0  0  0
   -5.6966   -1.4407  -18.3276 N   0  0  0  0  0  0  0  0  0  0  0  0
 29 30  1  0  0  0
 30 31  1  0  0  0
 31 32  2  0  0  0
 31 28  1  0  0  0
 28  1  1  0  0  0
  1  2  1  0  0  0
  3  2  1  0  0  0
  3  4  1  0  0  0
  4  5  2  0  0  0
  4  6  1  0  0  0
  6 18  1  0  0  0
 18 19  2  0  0  0
 19 20  1  0  0  0
 20 21  2  0  0  0
 21 22  1  0  0  0
 22 23  2  0  0  0
 23 24  1  0  0  0
 24 25  2  0  0  0
 25 26  1  0  0  0
 26 27  2  0  0  0
  6  7  1  0  0  0
  7  8  1  0  0  0
  8 34  1  0  0  0
 34 35  1  0  0  0
 35 37  1  0  0  0
 37 38  2  0  0  0
 38 39  1  0  0  0
 39 40  2  0  0  0
 40 41  1  0  0  0
 41 42  2  0  0  0
  3  9  1  0  0  0
  9 10  2  0  0  0
 10 11  1  0  0  0
 11 12  1  0  0  0
 11 13  2  0  0  0
 13 14  1  0  0  0
 14 15  2  0  0  0
 15 16  1  0  0  0
 16 17  2  0  0  0
 16  1  1  0  0  0
  8  3  1  0  0  0
 42 37  1  0  0  0
 15  9  1  0  0  0
 27 18  1  0  0  0
 27 22  1  0  0  0
 30 33  1  0  0  0
 35 36  1  0  0  0
M  END
> <minimizedAffinity>
-8.41901

> <CNNscore>
0.4564879835

> <CNNaffinity>
7.0053329468

> <CNN_VS>
3.1978502274

> <CNNaffinity_variance>
0.1192384213

$$$$



 42 47  0  0  0  0  0  0  0  0999 V2000
   -7.4036   -1.2886  -22.8066 N   0  0  0  0  0  0  0  0  0  0  0  0
   -7.6174    0.1624  -23.1211 C   0  0  0  0  0  0  0  0  0  0  0  0
   -9.0079    0.6911  -23.3137 C   0  0  0  0  0  0  0  0  0  0  0  0
  -10.3326    1.3601  -23.5316 C   0  0  0  0  0  0  0  0  0  0  0  0
  -11.5182    1.0945  -23.5469 O   0  0  0  0  0  0  0  0  0  0  0  0
  -10.0780    2.8103  -23.8181 N   0  0  0  0  0  0  0  0  0  0  0  0
   -8.5959    3.0376  -23.7772 C   0  0  0  0  0  0  0  0  0  0  0  0
   -7.9345    1.7279  -23.4655 C   0  0  0  0  0  0  0  0  0  0  0  0
  -10.1845   -0.2313  -23.1919 C   0  0  0  0  0  0  0  0  0  0  0  0
  -11.5750    0.2974  -23.3845 C   0  0  0  0  0  0  0  0  0  0  0  0
  -12.7516   -0.6249  -23.2627 C   0  0  0  0  0  0  0  0  0  0  0  0
  -14.1421   -0.0963  -23.4553 Cl  0  0  0  0  0  0  0  0  0  0  0  0
  -12.5377   -2.0759  -22.9482 C   0  0  0  0  0  0  0  0  0  0  0  0
  -11.1473   -2.6046  -22.7556 C   0  0  0  0  0  0  0  0  0  0  0  0
   -9.9707   -1.6822  -22.8774 C   0  0  0  0  0  0  0  0  0  0  0  0
   -8.5802   -2.2109  -22.6848 C   0  0  0  0  0  0  0  0  0  0  0  0
   -8.3663   -3.6619  -22.3703 O   0  0  0  0  0  0  0  0  0  0  0  0
  -11.1222    3.8506  -24.0965 C   0  0  0  0  0  0  0  0  0  0  0  0
  -12.0070    4.3404  -22.9887 C   0  0  0  0  0  0  0  0  0  0  0  0
  -13.0512    5.3806  -23.2672 N   0  0  0  0  0  0  0  0  0  0  0  0
  -13.2106    5.9311  -24.6534 C   0  0  0  0  0  0  0  0  0  0  0  0
  -12.3257    5.4412  -25.7612 C   0  0  0  0  0  0  0  0  0  0  0  0
  -12.4851    5.9917  -27.1474 C   0  0  0  0  0  0  0  0  0  0  0  0
  -11.6002    5.5018  -28.2552 C   0  0  0  0  0  0  0  0  0  0  0  0
  -10.5561    4.4616  -27.9767 C   0  0  0  0  0  0  0  0  0  0  0  0
  -10.3967    3.9112  -26.5905 C   0  0  0  0  0  0  0  0  0  0  0  0
  -11.2815    4.4010  -25.4827 C   0  0  0  0  0  0  0  0  0  0  0  0
   -6.0130   -1.8172  -22.6140 C   0  0  0  0  0  0  0  0  0  0  0  0
   -5.5152   -5.5884  -21.4827 C   0  0  0  0  0  0  0  0  0  0  0  0
   -5.7476   -4.3883  -22.3520 N   0  0  0  0  0  0  0  0  0  0  0  0
   -5.7807   -3.0173  -21.7446 C   0  0  0  0  0  0  0  0  0  0  0  0
   -5.5813   -2.8462  -20.2677 O   0  0  0  0  0  0  0  0  0  0  0  0
   -5.8784   -4.5006  -23.3213 H   0  0  0  0  0  0  0  0  0  0  0  0
   -6.4589    1.4957  -23.3294 C   0  0  0  0  0  0  0  0  0  0  0  0
   -5.5594    2.6173  -22.9020 N   0  0  0  0  0  0  0  0  0  0  0  0
   -5.5868    3.4788  -23.3777 H   0  0  0  0  0  0  0  0  0  0  0  0
   -4.6181    2.4264  -21.7498 C   0  0  0  0  0  0  0  0  0  0  0  0
   -4.9215    1.4040  -20.6949 C   0  0  0  0  0  0  0  0  0  0  0  0
   -3.9803    1.2132  -19.5428 C   0  0  0  0  0  0  0  0  0  0  0  0
   -2.7356    2.0447  -19.4453 N   0  0  0  0  0  0  0  0  0  0  0  0
   -2.4323    3.0671  -20.5001 C   0  0  0  0  0  0  0  0  0  0  0  0
   -3.3735    3.2579  -21.6524 N   0  0  0  0  0  0  0  0  0  0  0  0
 29 30  1  0  0  0
 30 31  1  0  0  0
 31 32  2  0  0  0
 31 28  1  0  0  0
 28  1  1  0  0  0
  1  2  1  0  0  0
  3  2  1  0  0  0
  3  4  1  0  0  0
  4  5  2  0  0  0
  4  6  1  0  0  0
  6 18  1  0  0  0
 18 19  2  0  0  0
 19 20  1  0  0  0
 20 21  2  0  0  0
 21 22  1  0  0  0
 22 23  2  0  0  0
 23 24  1  0  0  0
 24 25  2  0  0  0
 25 26  1  0  0  0
 26 27  2  0  0  0
  6  7  1  0  0  0
  7  8  1  0  0  0
  8 34  1  0  0  0
 34 35  1  0  0  0
 35 37  1  0  0  0
 37 38  2  0  0  0
 38 39  1  0  0  0
 39 40  2  0  0  0
 40 41  1  0  0  0
 41 42  2  0  0  0
  3  9  1  0  0  0
  9 10  2  0  0  0
 10 11  1  0  0  0
 11 12  1  0  0  0
 11 13  2  0  0  0
 13 14  1  0  0  0
 14 15  2  0  0  0
 15 16  1  0  0  0
 16 17  2  0  0  0
 16  1  1  0  0  0
  8  3  1  0  0  0
 42 37  1  0  0  0
 15  9  1  0  0  0
 27 18  1  0  0  0
 27 22  1  0  0  0
 30 33  1  0  0  0
 35 36  1  0  0  0
M  END
> <minimizedAffinity>
-8.10500

> <CNNscore>
0.4229490161

> <CNNaffinity>
6.7916173935

> <CNN_VS>
2.8725078106

> <CNNaffinity_variance>
0.0849827155

$$$$



 42 47  0  0  0  0  0  0  0  0999 V2000
   -6.9148   -1.0772  -22.4244 N   0  0  0  0  0  0  0  0  0  0  0  0
   -7.0458    0.2494  -23.1121 C   0  0  0  0  0  0  0  0  0  0  0  0
   -8.3828    0.7028  -23.6187 C   0  0  0  0  0  0  0  0  0  0  0  0
   -9.6476    1.2865  -24.1751 C   0  0  0  0  0  0  0  0  0  0  0  0
  -10.8267    1.0157  -24.2882 O   0  0  0  0  0  0  0  0  0  0  0  0
   -9.3185    2.6231  -24.7710 N   0  0  0  0  0  0  0  0  0  0  0  0
   -7.8502    2.8655  -24.5829 C   0  0  0  0  0  0  0  0  0  0  0  0
   -7.2719    1.6787  -23.8708 C   0  0  0  0  0  0  0  0  0  0  0  0
   -9.5889   -0.1705  -23.4377 C   0  0  0  0  0  0  0  0  0  0  0  0
  -10.9260    0.2829  -23.9444 C   0  0  0  0  0  0  0  0  0  0  0  0
  -12.1320   -0.5903  -23.7634 C   0  0  0  0  0  0  0  0  0  0  0  0
  -13.4692   -0.1370  -24.2701 Cl  0  0  0  0  0  0  0  0  0  0  0  0
  -12.0011   -1.9170  -23.0758 C   0  0  0  0  0  0  0  0  0  0  0  0
  -10.6640   -2.3704  -22.5691 C   0  0  0  0  0  0  0  0  0  0  0  0
   -9.4580   -1.4971  -22.7501 C   0  0  0  0  0  0  0  0  0  0  0  0
   -8.1209   -1.9505  -22.2434 C   0  0  0  0  0  0  0  0  0  0  0  0
   -7.9899   -3.2771  -21.5558 O   0  0  0  0  0  0  0  0  0  0  0  0
  -10.2875    3.5539  -25.4378 C   0  0  0  0  0  0  0  0  0  0  0  0
  -10.1583    3.8473  -26.9031 C   0  0  0  0  0  0  0  0  0  0  0  0
  -11.1273    4.7781  -27.5700 N   0  0  0  0  0  0  0  0  0  0  0  0
  -12.2255    5.4154  -26.7715 C   0  0  0  0  0  0  0  0  0  0  0  0
  -12.3548    5.1220  -25.3061 C   0  0  0  0  0  0  0  0  0  0  0  0
  -13.4531    5.7593  -24.5076 C   0  0  0  0  0  0  0  0  0  0  0  0
  -13.5822    5.4659  -23.0423 C   0  0  0  0  0  0  0  0  0  0  0  0
  -12.6132    4.5351  -22.3754 C   0  0  0  0  0  0  0  0  0  0  0  0
  -11.5150    3.8978  -23.1739 C   0  0  0  0  0  0  0  0  0  0  0  0
  -11.3857    4.1912  -24.6393 C   0  0  0  0  0  0  0  0  0  0  0  0
   -5.5777   -1.5306  -21.9177 C   0  0  0  0  0  0  0  0  0  0  0  0
   -5.0937   -0.3669  -18.1546 C   0  0  0  0  0  0  0  0  0  0  0  0
   -5.3596   -0.3187  -19.6300 N   0  0  0  0  0  0  0  0  0  0  0  0
   -5.3118   -1.5788  -20.4423 C   0  0  0  0  0  0  0  0  0  0  0  0
   -4.9980   -2.8872  -19.7791 O   0  0  0  0  0  0  0  0  0  0  0  0
   -5.5655    0.5400  -20.0653 H   0  0  0  0  0  0  0  0  0  0  0  0
   -5.8350    1.4993  -23.4795 C   0  0  0  0  0  0  0  0  0  0  0  0
   -5.2125    2.4171  -22.4695 N   0  0  0  0  0  0  0  0  0  0  0  0
   -5.6791    3.2409  -22.1995 H   0  0  0  0  0  0  0  0  0  0  0  0
   -3.8792    2.0797  -21.8709 C   0  0  0  0  0  0  0  0  0  0  0  0
   -2.7484    1.6448  -22.7553 C   0  0  0  0  0  0  0  0  0  0  0  0
   -1.4151    1.3075  -22.1567 C   0  0  0  0  0  0  0  0  0  0  0  0
   -1.2125    1.4051  -20.6736 N   0  0  0  0  0  0  0  0  0  0  0  0
   -2.3432    1.8400  -19.7892 C   0  0  0  0  0  0  0  0  0  0  0  0
   -3.6766    2.1773  -20.3878 N   0  0  0  0  0  0  0  0  0  0  0  0
 29 30  1  0  0  0
 30 31  1  0  0  0
 31 32  2  0  0  0
 31 28  1  0  0  0
 28  1  1  0  0  0
  1  2  1  0  0  0
  3  2  1  0  0  0
  3  4  1  0  0  0
  4  5  2  0  0  0
  4  6  1  0  0  0
  6 18  1  0  0  0
 18 19  2  0  0  0
 19 20  1  0  0  0
 20 21  2  0  0  0
 21 22  1  0  0  0
 22 23  2  0  0  0
 23 24  1  0  0  0
 24 25  2  0  0  0
 25 26  1  0  0  0
 26 27  2  0  0  0
  6  7  1  0  0  0
  7  8  1  0  0  0
  8 34  1  0  0  0
 34 35  1  0  0  0
 35 37  1  0  0  0
 37 38  2  0  0  0
 38 39  1  0  0  0
 39 40  2  0  0  0
 40 41  1  0  0  0
 41 42  2  0  0  0
  3  9  1  0  0  0
  9 10  2  0  0  0
 10 11  1  0  0  0
 11 12  1  0  0  0
 11 13  2  0  0  0
 13 14  1  0  0  0
 14 15  2  0  0  0
 15 16  1  0  0  0
 16 17  2  0  0  0
 16  1  1  0  0  0
  8  3  1  0  0  0
 42 37  1  0  0  0
 15  9  1  0  0  0
 27 18  1  0  0  0
 27 22  1  0  0  0
 30 33  1  0  0  0
 35 36  1  0  0  0
M  END
> <minimizedAffinity>
-7.89155

> <CNNscore>
0.3186466098

> <CNNaffinity>
6.3933687210

> <CNN_VS>
2.0372252464

> <CNNaffinity_variance>
0.2014276236

$$$$



 42 47  0  0  0  0  0  0  0  0999 V2000
   -8.7238    2.5853  -24.0829 N   0  0  0  0  0  0  0  0  0  0  0  0
   -7.8595    1.3634  -24.1834 C   0  0  0  0  0  0  0  0  0  0  0  0
   -8.4613    0.0019  -23.9991 C   0  0  0  0  0  0  0  0  0  0  0  0
   -8.9191   -1.4176  -23.8391 C   0  0  0  0  0  0  0  0  0  0  0  0
   -9.9327   -2.0490  -23.6145 O   0  0  0  0  0  0  0  0  0  0  0  0
   -7.7282   -2.3118  -24.0183 N   0  0  0  0  0  0  0  0  0  0  0  0
   -6.5344   -1.4450  -24.2892 C   0  0  0  0  0  0  0  0  0  0  0  0
   -6.9874   -0.0151  -24.2773 C   0  0  0  0  0  0  0  0  0  0  0  0
   -9.9274   -0.1379  -23.7143 C   0  0  0  0  0  0  0  0  0  0  0  0
  -10.5292   -1.4994  -23.5300 C   0  0  0  0  0  0  0  0  0  0  0  0
  -11.9952   -1.6391  -23.2452 C   0  0  0  0  0  0  0  0  0  0  0  0
  -12.5971   -3.0007  -23.0609 Cl  0  0  0  0  0  0  0  0  0  0  0  0
  -12.8595   -0.4173  -23.1447 C   0  0  0  0  0  0  0  0  0  0  0  0
  -12.2577    0.9443  -23.3290 C   0  0  0  0  0  0  0  0  0  0  0  0
  -10.7917    1.0840  -23.6138 C   0  0  0  0  0  0  0  0  0  0  0  0
  -10.1898    2.4456  -23.7981 C   0  0  0  0  0  0  0  0  0  0  0  0
  -11.0541    3.6674  -23.6976 O   0  0  0  0  0  0  0  0  0  0  0  0
   -7.7308   -3.8098  -23.9404 C   0  0  0  0  0  0  0  0  0  0  0  0
   -7.2067   -4.4980  -22.7150 C   0  0  0  0  0  0  0  0  0  0  0  0
   -7.2092   -5.9959  -22.6371 N   0  0  0  0  0  0  0  0  0  0  0  0
   -7.7359   -6.8057  -23.7846 C   0  0  0  0  0  0  0  0  0  0  0  0
   -8.2601   -6.1175  -25.0101 C   0  0  0  0  0  0  0  0  0  0  0  0
   -8.7868   -6.9273  -26.1576 C   0  0  0  0  0  0  0  0  0  0  0  0
   -9.3109   -6.2390  -27.3830 C   0  0  0  0  0  0  0  0  0  0  0  0
   -9.3084   -4.7410  -27.4609 C   0  0  0  0  0  0  0  0  0  0  0  0
   -8.7817   -3.9313  -26.3134 C   0  0  0  0  0  0  0  0  0  0  0  0
   -8.2575   -4.6195  -25.0880 C   0  0  0  0  0  0  0  0  0  0  0  0
   -8.1220    3.9469  -24.2672 C   0  0  0  0  0  0  0  0  0  0  0  0
   -6.4264    6.7329  -22.0060 C   0  0  0  0  0  0  0  0  0  0  0  0
   -7.1702    6.0826  -23.1346 N   0  0  0  0  0  0  0  0  0  0  0  0
   -7.3782    4.5971  -23.1385 C   0  0  0  0  0  0  0  0  0  0  0  0
   -6.8423    3.7618  -22.0137 O   0  0  0  0  0  0  0  0  0  0  0  0
   -7.5219    6.6308  -23.8729 H   0  0  0  0  0  0  0  0  0  0  0  0
   -6.1190    1.1868  -24.5038 C   0  0  0  0  0  0  0  0  0  0  0  0
   -4.6821    1.1657  -24.0740 N   0  0  0  0  0  0  0  0  0  0  0  0
   -3.9724    1.0046  -24.7370 H   0  0  0  0  0  0  0  0  0  0  0  0
   -4.3265    1.3899  -22.6342 C   0  0  0  0  0  0  0  0  0  0  0  0
   -3.2879    2.4083  -22.2680 C   0  0  0  0  0  0  0  0  0  0  0  0
   -2.9323    2.6326  -20.8282 C   0  0  0  0  0  0  0  0  0  0  0  0
   -3.6153    1.8384  -19.7544 N   0  0  0  0  0  0  0  0  0  0  0  0
   -4.6539    0.8201  -20.1206 C   0  0  0  0  0  0  0  0  0  0  0  0
   -5.0096    0.5958  -21.5605 N   0  0  0  0  0  0  0  0  0  0  0  0
 29 30  1  0  0  0
 30 31  1  0  0  0
 31 32  2  0  0  0
 31 28  1  0  0  0
 28  1  1  0  0  0
  1  2  1  0  0  0
  3  2  1  0  0  0
  3  4  1  0  0  0
  4  5  2  0  0  0
  4  6  1  0  0  0
  6 18  1  0  0  0
 18 19  2  0  0  0
 19 20  1  0  0  0
 20 21  2  0  0  0
 21 22  1  0  0  0
 22 23  2  0  0  0
 23 24  1  0  0  0
 24 25  2  0  0  0
 25 26  1  0  0  0
 26 27  2  0  0  0
  6  7  1  0  0  0
  7  8  1  0  0  0
  8 34  1  0  0  0
 34 35  1  0  0  0
 35 37  1  0  0  0
 37 38  2  0  0  0
 38 39  1  0  0  0
 39 40  2  0  0  0
 40 41  1  0  0  0
 41 42  2  0  0  0
  3  9  1  0  0  0
  9 10  2  0  0  0
 10 11  1  0  0  0
 11 12  1  0  0  0
 11 13  2  0  0  0
 13 14  1  0  0  0
 14 15  2  0  0  0
 15 16  1  0  0  0
 16 17  2  0  0  0
 16  1  1  0  0  0
  8  3  1  0  0  0
 42 37  1  0  0  0
 15  9  1  0  0  0
 27 18  1  0  0  0
 27 22  1  0  0  0
 30 33  1  0  0  0
 35 36  1  0  0  0
M  END
> <minimizedAffinity>
-7.68331

> <CNNscore>
0.1752018929

> <CNNaffinity>
6.5908317566

> <CNN_VS>
1.1547261477

> <CNNaffinity_variance>
0.1403927356

$$$$



 42 47  0  0  0  0  0  0  0  0999 V2000
   -6.9463   -2.9576  -22.2359 N   0  0  0  0  0  0  0  0  0  0  0  0
   -7.8134   -2.1077  -23.1166 C   0  0  0  0  0  0  0  0  0  0  0  0
   -7.5797   -0.6282  -23.1963 C   0  0  0  0  0  0  0  0  0  0  0  0
   -7.4661    0.8565  -23.3771 C   0  0  0  0  0  0  0  0  0  0  0  0
   -6.7945    1.7926  -22.9908 O   0  0  0  0  0  0  0  0  0  0  0  0
   -8.5289    1.2886  -24.3435 N   0  0  0  0  0  0  0  0  0  0  0  0
   -9.2994    0.0709  -24.7600 C   0  0  0  0  0  0  0  0  0  0  0  0
   -8.7128   -1.1137  -24.0510 C   0  0  0  0  0  0  0  0  0  0  0  0
   -6.4788    0.0015  -22.3952 C   0  0  0  0  0  0  0  0  0  0  0  0
   -6.2451    1.4810  -22.4750 C   0  0  0  0  0  0  0  0  0  0  0  0
   -5.1443    2.1106  -21.6739 C   0  0  0  0  0  0  0  0  0  0  0  0
   -4.9106    3.5902  -21.7536 Cl  0  0  0  0  0  0  0  0  0  0  0  0
   -4.2772    1.2607  -20.7931 C   0  0  0  0  0  0  0  0  0  0  0  0
   -4.5109   -0.2188  -20.7134 C   0  0  0  0  0  0  0  0  0  0  0  0
   -5.6117   -0.8484  -21.5145 C   0  0  0  0  0  0  0  0  0  0  0  0
   -5.8455   -2.3280  -21.4348 C   0  0  0  0  0  0  0  0  0  0  0  0
   -4.9783   -3.1779  -20.5540 O   0  0  0  0  0  0  0  0  0  0  0  0
   -8.7775    2.6919  -24.8112 C   0  0  0  0  0  0  0  0  0  0  0  0
   -7.7655    3.3851  -25.6746 C   0  0  0  0  0  0  0  0  0  0  0  0
   -8.0141    4.7885  -26.1423 N   0  0  0  0  0  0  0  0  0  0  0  0
   -9.2747    5.4986  -25.7467 C   0  0  0  0  0  0  0  0  0  0  0  0
  -10.2867    4.8054  -24.8833 C   0  0  0  0  0  0  0  0  0  0  0  0
  -11.5473    5.5157  -24.4877 C   0  0  0  0  0  0  0  0  0  0  0  0
  -12.5592    4.8224  -23.6243 C   0  0  0  0  0  0  0  0  0  0  0  0
  -12.3106    3.4191  -23.1566 C   0  0  0  0  0  0  0  0  0  0  0  0
  -11.0500    2.7089  -23.5522 C   0  0  0  0  0  0  0  0  0  0  0  0
  -10.0381    3.4021  -24.4156 C   0  0  0  0  0  0  0  0  0  0  0  0
   -7.1800   -4.4372  -22.1562 C   0  0  0  0  0  0  0  0  0  0  0  0
   -4.4249   -6.5067  -24.1249 C   0  0  0  0  0  0  0  0  0  0  0  0
   -5.5479   -5.5537  -23.8413 N   0  0  0  0  0  0  0  0  0  0  0  0
   -6.0570   -5.3902  -22.4398 C   0  0  0  0  0  0  0  0  0  0  0  0
   -5.4430   -6.1798  -21.3220 O   0  0  0  0  0  0  0  0  0  0  0  0
   -5.9509   -5.0354  -24.5749 H   0  0  0  0  0  0  0  0  0  0  0  0
   -9.1776   -2.5345  -24.1749 C   0  0  0  0  0  0  0  0  0  0  0  0
  -10.2141   -3.0695  -23.2319 N   0  0  0  0  0  0  0  0  0  0  0  0
  -10.0140   -3.8569  -22.6758 H   0  0  0  0  0  0  0  0  0  0  0  0
  -11.5555   -2.4050  -23.1362 C   0  0  0  0  0  0  0  0  0  0  0  0
  -11.8164   -1.1310  -23.8837 C   0  0  0  0  0  0  0  0  0  0  0  0
  -13.1577   -0.4665  -23.7880 C   0  0  0  0  0  0  0  0  0  0  0  0
  -14.2382   -1.0760  -22.9447 N   0  0  0  0  0  0  0  0  0  0  0  0
  -13.9773   -2.3500  -22.1972 C   0  0  0  0  0  0  0  0  0  0  0  0
  -12.6359   -3.0145  -22.2929 N   0  0  0  0  0  0  0  0  0  0  0  0
 29 30  1  0  0  0
 30 31  1  0  0  0
 31 32  2  0  0  0
 31 28  1  0  0  0
 28  1  1  0  0  0
  1  2  1  0  0  0
  3  2  1  0  0  0
  3  4  1  0  0  0
  4  5  2  0  0  0
  4  6  1  0  0  0
  6 18  1  0  0  0
 18 19  2  0  0  0
 19 20  1  0  0  0
 20 21  2  0  0  0
 21 22  1  0  0  0
 22 23  2  0  0  0
 23 24  1  0  0  0
 24 25  2  0  0  0
 25 26  1  0  0  0
 26 27  2  0  0  0
  6  7  1  0  0  0
  7  8  1  0  0  0
  8 34  1  0  0  0
 34 35  1  0  0  0
 35 37  1  0  0  0
 37 38  2  0  0  0
 38 39  1  0  0  0
 39 40  2  0  0  0
 40 41  1  0  0  0
 41 42  2  0  0  0
  3  9  1  0  0  0
  9 10  2  0  0  0
 10 11  1  0  0  0
 11 12  1  0  0  0
 11 13  2  0  0  0
 13 14  1  0  0  0
 14 15  2  0  0  0
 15 16  1  0  0  0
 16 17  2  0  0  0
 16  1  1  0  0  0
  8  3  1  0  0  0
 42 37  1  0  0  0
 15  9  1  0  0  0
 27 18  1  0  0  0
 27 22  1  0  0  0
 30 33  1  0  0  0
 35 36  1  0  0  0
M  END
> <minimizedAffinity>
-7.92883

> <CNNscore>
0.1595331430

> <CNNaffinity>
6.6372222900

> <CNN_VS>
1.0588569641

> <CNNaffinity_variance>
0.2329774797

$$$$



 42 47  0  0  0  0  0  0  0  0999 V2000
   -9.4782   -2.2838  -23.6354 N   0  0  0  0  0  0  0  0  0  0  0  0
   -8.1096   -2.3199  -23.0227 C   0  0  0  0  0  0  0  0  0  0  0  0
   -7.3980   -1.0394  -22.7004 C   0  0  0  0  0  0  0  0  0  0  0  0
   -6.5681    0.1525  -22.3254 C   0  0  0  0  0  0  0  0  0  0  0  0
   -6.6201    1.3663  -22.3452 O   0  0  0  0  0  0  0  0  0  0  0  0
   -5.2762   -0.3452  -21.7483 N   0  0  0  0  0  0  0  0  0  0  0  0
   -5.3075   -1.8448  -21.7667 C   0  0  0  0  0  0  0  0  0  0  0  0
   -6.6189   -2.2738  -22.3551 C   0  0  0  0  0  0  0  0  0  0  0  0
   -8.0552    0.2774  -22.9909 C   0  0  0  0  0  0  0  0  0  0  0  0
   -7.3437    1.5579  -22.6687 C   0  0  0  0  0  0  0  0  0  0  0  0
   -8.0008    2.8746  -22.9592 C   0  0  0  0  0  0  0  0  0  0  0  0
   -7.2893    4.1553  -22.6369 Cl  0  0  0  0  0  0  0  0  0  0  0  0
   -9.3695    2.9108  -23.5719 C   0  0  0  0  0  0  0  0  0  0  0  0
  -10.0810    1.6302  -23.8942 C   0  0  0  0  0  0  0  0  0  0  0  0
   -9.4238    0.3135  -23.6037 C   0  0  0  0  0  0  0  0  0  0  0  0
  -10.1354   -0.9671  -23.9259 C   0  0  0  0  0  0  0  0  0  0  0  0
  -11.5040   -0.9309  -24.5387 O   0  0  0  0  0  0  0  0  0  0  0  0
   -4.1504    0.5070  -21.2419 C   0  0  0  0  0  0  0  0  0  0  0  0
   -4.1578    0.9936  -19.8230 C   0  0  0  0  0  0  0  0  0  0  0  0
   -3.0321    1.8458  -19.3165 N   0  0  0  0  0  0  0  0  0  0  0  0
   -1.8990    2.2113  -20.2289 C   0  0  0  0  0  0  0  0  0  0  0  0
   -1.8916    1.7247  -21.6477 C   0  0  0  0  0  0  0  0  0  0  0  0
   -0.7585    2.0903  -22.5601 C   0  0  0  0  0  0  0  0  0  0  0  0
   -0.7512    1.6036  -23.9790 C   0  0  0  0  0  0  0  0  0  0  0  0
   -1.8769    0.7514  -24.4855 C   0  0  0  0  0  0  0  0  0  0  0  0
   -3.0100    0.3858  -23.5731 C   0  0  0  0  0  0  0  0  0  0  0  0
   -3.0174    0.8725  -22.1542 C   0  0  0  0  0  0  0  0  0  0  0  0
  -10.1897   -3.5644  -23.9577 C   0  0  0  0  0  0  0  0  0  0  0  0
  -10.3629   -6.1301  -26.9804 C   0  0  0  0  0  0  0  0  0  0  0  0
  -10.4109   -5.5755  -25.5876 N   0  0  0  0  0  0  0  0  0  0  0  0
  -10.1418   -4.1190  -25.3506 C   0  0  0  0  0  0  0  0  0  0  0  0
   -9.8248   -3.2171  -26.5065 O   0  0  0  0  0  0  0  0  0  0  0  0
  -10.6189   -6.1675  -24.8289 H   0  0  0  0  0  0  0  0  0  0  0  0
   -7.0717   -3.6888  -22.5619 C   0  0  0  0  0  0  0  0  0  0  0  0
   -6.0656   -4.8007  -22.5972 N   0  0  0  0  0  0  0  0  0  0  0  0
   -5.4572   -4.9383  -21.8355 H   0  0  0  0  0  0  0  0  0  0  0  0
   -5.9863   -5.7028  -23.7929 C   0  0  0  0  0  0  0  0  0  0  0  0
   -4.9122   -6.7466  -23.8750 C   0  0  0  0  0  0  0  0  0  0  0  0
   -4.8329   -7.6488  -25.0707 C   0  0  0  0  0  0  0  0  0  0  0  0
   -5.8278   -7.5072  -26.1844 N   0  0  0  0  0  0  0  0  0  0  0  0
   -6.9019   -6.4634  -26.1023 C   0  0  0  0  0  0  0  0  0  0  0  0
   -6.9812   -5.5613  -24.9065 N   0  0  0  0  0  0  0  0  0  0  0  0
 29 30  1  0  0  0
 30 31  1  0  0  0
 31 32  2  0  0  0
 31 28  1  0  0  0
 28  1  1  0  0  0
  1  2  1  0  0  0
  3  2  1  0  0  0
  3  4  1  0  0  0
  4  5  2  0  0  0
  4  6  1  0  0  0
  6 18  1  0  0  0
 18 19  2  0  0  0
 19 20  1  0  0  0
 20 21  2  0  0  0
 21 22  1  0  0  0
 22 23  2  0  0  0
 23 24  1  0  0  0
 24 25  2  0  0  0
 25 26  1  0  0  0
 26 27  2  0  0  0
  6  7  1  0  0  0
  7  8  1  0  0  0
  8 34  1  0  0  0
 34 35  1  0  0  0
 35 37  1  0  0  0
 37 38  2  0  0  0
 38 39  1  0  0  0
 39 40  2  0  0  0
 40 41  1  0  0  0
 41 42  2  0  0  0
  3  9  1  0  0  0
  9 10  2  0  0  0
 10 11  1  0  0  0
 11 12  1  0  0  0
 11 13  2  0  0  0
 13 14  1  0  0  0
 14 15  2  0  0  0
 15 16  1  0  0  0
 16 17  2  0  0  0
 16  1  1  0  0  0
  8  3  1  0  0  0
 42 37  1  0  0  0
 15  9  1  0  0  0
 27 18  1  0  0  0
 27 22  1  0  0  0
 30 33  1  0  0  0
 35 36  1  0  0  0
M  END
> <minimizedAffinity>
-8.08561

> <CNNscore>
0.1503160000

> <CNNaffinity>
6.3462538719

> <CNN_VS>
0.9539434910

> <CNNaffinity_variance>
0.1560176462

$$$$



 42 47  0  0  0  0  0  0  0  0999 V2000
   -9.1826   -2.5429  -23.3350 N   0  0  0  0  0  0  0  0  0  0  0  0
   -8.2083   -1.4029  -23.3690 C   0  0  0  0  0  0  0  0  0  0  0  0
   -8.7087    0.0095  -23.4387 C   0  0  0  0  0  0  0  0  0  0  0  0
   -9.0585    1.4665  -23.5078 C   0  0  0  0  0  0  0  0  0  0  0  0
  -10.0349    2.1880  -23.5551 O   0  0  0  0  0  0  0  0  0  0  0  0
   -7.7796    2.2502  -23.5214 N   0  0  0  0  0  0  0  0  0  0  0  0
   -6.6393    1.2775  -23.4606 C   0  0  0  0  0  0  0  0  0  0  0  0
   -7.2135   -0.1073  -23.4094 C   0  0  0  0  0  0  0  0  0  0  0  0
  -10.1834    0.2818  -23.4743 C   0  0  0  0  0  0  0  0  0  0  0  0
  -10.6837    1.6942  -23.5440 C   0  0  0  0  0  0  0  0  0  0  0  0
  -12.1583    1.9665  -23.5797 C   0  0  0  0  0  0  0  0  0  0  0  0
  -12.6588    3.3789  -23.6494 Cl  0  0  0  0  0  0  0  0  0  0  0  0
  -13.1326    0.8264  -23.5457 C   0  0  0  0  0  0  0  0  0  0  0  0
  -12.6322   -0.5859  -23.4760 C   0  0  0  0  0  0  0  0  0  0  0  0
  -11.1576   -0.8582  -23.4403 C   0  0  0  0  0  0  0  0  0  0  0  0
  -10.6572   -2.2706  -23.3706 C   0  0  0  0  0  0  0  0  0  0  0  0
  -11.6314   -3.4106  -23.3366 O   0  0  0  0  0  0  0  0  0  0  0  0
   -7.6617    3.7442  -23.5847 C   0  0  0  0  0  0  0  0  0  0  0  0
   -7.3468    4.5249  -22.3432 C   0  0  0  0  0  0  0  0  0  0  0  0
   -7.2289    6.0189  -22.4064 N   0  0  0  0  0  0  0  0  0  0  0  0
   -7.4259    6.7322  -23.7112 C   0  0  0  0  0  0  0  0  0  0  0  0
   -7.7408    5.9514  -24.9527 C   0  0  0  0  0  0  0  0  0  0  0  0
   -7.9378    6.6648  -26.2575 C   0  0  0  0  0  0  0  0  0  0  0  0
   -8.2527    5.8840  -27.4989 C   0  0  0  0  0  0  0  0  0  0  0  0
   -8.3706    4.3899  -27.4357 C   0  0  0  0  0  0  0  0  0  0  0  0
   -8.1736    3.6767  -26.1309 C   0  0  0  0  0  0  0  0  0  0  0  0
   -7.8587    4.4574  -24.8894 C   0  0  0  0  0  0  0  0  0  0  0  0
   -8.6821   -3.9553  -23.2653 C   0  0  0  0  0  0  0  0  0  0  0  0
   -9.7408   -5.6384  -26.6999 C   0  0  0  0  0  0  0  0  0  0  0  0
   -9.7915   -4.7985  -25.4581 N   0  0  0  0  0  0  0  0  0  0  0  0
   -8.6315   -4.7951  -24.5071 C   0  0  0  0  0  0  0  0  0  0  0  0
   -7.4207   -5.6316  -24.7980 O   0  0  0  0  0  0  0  0  0  0  0  0
  -10.5861   -4.2496  -25.2671 H   0  0  0  0  0  0  0  0  0  0  0  0
   -6.4301   -1.3846  -23.3411 C   0  0  0  0  0  0  0  0  0  0  0  0
   -5.1827   -1.4559  -22.5111 N   0  0  0  0  0  0  0  0  0  0  0  0
   -4.3190   -1.6600  -22.9372 H   0  0  0  0  0  0  0  0  0  0  0  0
   -5.2512   -1.2163  -21.0320 C   0  0  0  0  0  0  0  0  0  0  0  0
   -4.6453    0.0236  -20.4442 C   0  0  0  0  0  0  0  0  0  0  0  0
   -4.7138    0.2632  -18.9652 C   0  0  0  0  0  0  0  0  0  0  0  0
   -5.3882   -0.7370  -18.0737 N   0  0  0  0  0  0  0  0  0  0  0  0
   -5.9941   -1.9769  -18.6614 C   0  0  0  0  0  0  0  0  0  0  0  0
   -5.9256   -2.2166  -20.1406 N   0  0  0  0  0  0  0  0  0  0  0  0
 29 30  1  0  0  0
 30 31  1  0  0  0
 31 32  2  0  0  0
 31 28  1  0  0  0
 28  1  1  0  0  0
  1  2  1  0  0  0
  3  2  1  0  0  0
  3  4  1  0  0  0
  4  5  2  0  0  0
  4  6  1  0  0  0
  6 18  1  0  0  0
 18 19  2  0  0  0
 19 20  1  0  0  0
 20 21  2  0  0  0
 21 22  1  0  0  0
 22 23  2  0  0  0
 23 24  1  0  0  0
 24 25  2  0  0  0
 25 26  1  0  0  0
 26 27  2  0  0  0
  6  7  1  0  0  0
  7  8  1  0  0  0
  8 34  1  0  0  0
 34 35  1  0  0  0
 35 37  1  0  0  0
 37 38  2  0  0  0
 38 39  1  0  0  0
 39 40  2  0  0  0
 40 41  1  0  0  0
 41 42  2  0  0  0
  3  9  1  0  0  0
  9 10  2  0  0  0
 10 11  1  0  0  0
 11 12  1  0  0  0
 11 13  2  0  0  0
 13 14  1  0  0  0
 14 15  2  0  0  0
 15 16  1  0  0  0
 16 17  2  0  0  0
 16  1  1  0  0  0
  8  3  1  0  0  0
 42 37  1  0  0  0
 15  9  1  0  0  0
 27 18  1  0  0  0
 27 22  1  0  0  0
 30 33  1  0  0  0
 35 36  1  0  0  0
M  END
> <minimizedAffinity>
-8.26931

> <CNNscore>
0.1380730718

> <CNNaffinity>
6.3542842865

> <CNN_VS>
0.8773555756

> <CNNaffinity_variance>
0.5953682661

$$$$



 42 47  0  0  0  0  0  0  0  0999 V2000
   -8.4000   -5.5435  -24.6619 N   0  0  0  0  0  0  0  0  0  0  0  0
   -7.3607   -5.2157  -23.6311 C   0  0  0  0  0  0  0  0  0  0  0  0
   -7.4105   -3.9030  -22.9070 C   0  0  0  0  0  0  0  0  0  0  0  0
   -7.3316   -2.6372  -22.1061 C   0  0  0  0  0  0  0  0  0  0  0  0
   -7.9216   -1.5838  -21.9695 O   0  0  0  0  0  0  0  0  0  0  0  0
   -6.1400   -2.7353  -21.2003 N   0  0  0  0  0  0  0  0  0  0  0  0
   -5.4825   -4.0617  -21.4413 C   0  0  0  0  0  0  0  0  0  0  0  0
   -6.2677   -4.7834  -22.4961 C   0  0  0  0  0  0  0  0  0  0  0  0
   -8.4996   -2.9181  -23.2136 C   0  0  0  0  0  0  0  0  0  0  0  0
   -8.5494   -1.6055  -22.4895 C   0  0  0  0  0  0  0  0  0  0  0  0
   -9.6385   -0.6206  -22.7961 C   0  0  0  0  0  0  0  0  0  0  0  0
   -9.6883    0.6921  -22.0720 Cl  0  0  0  0  0  0  0  0  0  0  0  0
  -10.6777   -0.9485  -23.8269 C   0  0  0  0  0  0  0  0  0  0  0  0
  -10.6279   -2.2611  -24.5510 C   0  0  0  0  0  0  0  0  0  0  0  0
   -9.5389   -3.2459  -24.2444 C   0  0  0  0  0  0  0  0  0  0  0  0
   -9.4890   -4.5587  -24.9685 C   0  0  0  0  0  0  0  0  0  0  0  0
  -10.5283   -4.8865  -25.9993 O   0  0  0  0  0  0  0  0  0  0  0  0
   -5.6858   -1.6903  -20.2247 C   0  0  0  0  0  0  0  0  0  0  0  0
   -6.0924   -1.7822  -18.7837 C   0  0  0  0  0  0  0  0  0  0  0  0
   -5.6382   -0.7373  -17.8082 N   0  0  0  0  0  0  0  0  0  0  0  0
   -4.7773    0.3995  -18.2735 C   0  0  0  0  0  0  0  0  0  0  0  0
   -4.3706    0.4914  -19.7144 C   0  0  0  0  0  0  0  0  0  0  0  0
   -3.5097    1.6282  -20.1798 C   0  0  0  0  0  0  0  0  0  0  0  0
   -3.1031    1.7200  -21.6207 C   0  0  0  0  0  0  0  0  0  0  0  0
   -3.5574    0.6751  -22.5963 C   0  0  0  0  0  0  0  0  0  0  0  0
   -4.4183   -0.4617  -22.1309 C   0  0  0  0  0  0  0  0  0  0  0  0
   -4.8249   -0.5535  -20.6900 C   0  0  0  0  0  0  0  0  0  0  0  0
   -8.3501   -6.8562  -25.3860 C   0  0  0  0  0  0  0  0  0  0  0  0
   -5.7646   -7.2575  -28.3700 C   0  0  0  0  0  0  0  0  0  0  0  0
   -6.3262   -7.1882  -26.9808 N   0  0  0  0  0  0  0  0  0  0  0  0
   -7.7886   -6.9256  -26.7752 C   0  0  0  0  0  0  0  0  0  0  0  0
   -8.6896   -6.7323  -27.9589 O   0  0  0  0  0  0  0  0  0  0  0  0
   -5.7349   -7.3150  -26.2039 H   0  0  0  0  0  0  0  0  0  0  0  0
   -5.9635   -6.1463  -23.0439 C   0  0  0  0  0  0  0  0  0  0  0  0
   -4.7178   -6.8650  -22.6178 N   0  0  0  0  0  0  0  0  0  0  0  0
   -4.5483   -7.0320  -21.6625 H   0  0  0  0  0  0  0  0  0  0  0  0
   -3.7304   -7.3292  -23.6471 C   0  0  0  0  0  0  0  0  0  0  0  0
   -2.2828   -6.9579  -23.5188 C   0  0  0  0  0  0  0  0  0  0  0  0
   -1.2954   -7.4220  -24.5481 C   0  0  0  0  0  0  0  0  0  0  0  0
   -1.7555   -8.2576  -25.7057 N   0  0  0  0  0  0  0  0  0  0  0  0
   -3.2031   -8.6290  -25.8340 C   0  0  0  0  0  0  0  0  0  0  0  0
   -4.1906   -8.1648  -24.8047 N   0  0  0  0  0  0  0  0  0  0  0  0
 29 30  1  0  0  0
 30 31  1  0  0  0
 31 32  2  0  0  0
 31 28  1  0  0  0
 28  1  1  0  0  0
  1  2  1  0  0  0
  3  2  1  0  0  0
  3  4  1  0  0  0
  4  5  2  0  0  0
  4  6  1  0  0  0
  6 18  1  0  0  0
 18 19  2  0  0  0
 19 20  1  0  0  0
 20 21  2  0  0  0
 21 22  1  0  0  0
 22 23  2  0  0  0
 23 24  1  0  0  0
 24 25  2  0  0  0
 25 26  1  0  0  0
 26 27  2  0  0  0
  6  7  1  0  0  0
  7  8  1  0  0  0
  8 34  1  0  0  0
 34 35  1  0  0  0
 35 37  1  0  0  0
 37 38  2  0  0  0
 38 39  1  0  0  0
 39 40  2  0  0  0
 40 41  1  0  0  0
 41 42  2  0  0  0
  3  9  1  0  0  0
  9 10  2  0  0  0
 10 11  1  0  0  0
 11 12  1  0  0  0
 11 13  2  0  0  0
 13 14  1  0  0  0
 14 15  2  0  0  0
 15 16  1  0  0  0
 16 17  2  0  0  0
 16  1  1  0  0  0
  8  3  1  0  0  0
 42 37  1  0  0  0
 15  9  1  0  0  0
 27 18  1  0  0  0
 27 22  1  0  0  0
 30 33  1  0  0  0
 35 36  1  0  0  0
M  END
> <minimizedAffinity>
-9.04712

> <CNNscore>
0.1239606068

> <CNNaffinity>
6.4141836166

> <CNN_VS>
0.7951061130

> <CNNaffinity_variance>
0.4758259654

$$$$
