


 28 31  0  0  0  0  0  0  0  0999 V2000
    6.3443   -1.0779   21.5178 N   0  0  0  0  0  0  0  0  0  0  0  0
    7.5573   -0.5636   22.2347 C   0  0  0  0  0  0  0  0  0  0  0  0
    8.2589    0.6648   21.7357 O   0  0  0  0  0  0  0  0  0  0  0  0
    5.8838   -1.8841   21.8453 H   0  0  0  0  0  0  0  0  0  0  0  0
    8.0687   -1.2775   23.4507 C   0  0  0  0  0  0  0  0  0  0  0  0
    7.1093   -1.7474   24.5036 C   0  0  0  0  0  0  0  0  0  0  0  0
    7.6207   -2.4613   25.7196 N   0  0  0  0  0  0  0  0  0  0  0  0
    9.0917   -2.7054   25.8827 S   0  0  0  0  0  0  0  0  0  0  0  0
   10.3855   -3.1686   26.4841 O   0  0  0  0  0  0  0  0  0  0  0  0
    8.5815   -3.3361   27.1445 O   0  0  0  0  0  0  0  0  0  0  0  0
   10.0513   -2.2355   24.8298 C   0  0  0  0  0  0  0  0  0  0  0  0
   11.5222   -2.4796   24.9930 C   0  0  0  0  0  0  0  0  0  0  0  0
   12.4817   -2.0098   23.9401 C   0  0  0  0  0  0  0  0  0  0  0  0
   11.9702   -1.2958   22.7241 C   0  0  0  0  0  0  0  0  0  0  0  0
   12.9298   -0.8259   21.6712 Cl  0  0  0  0  0  0  0  0  0  0  0  0
   10.4993   -1.0517   22.5610 C   0  0  0  0  0  0  0  0  0  0  0  0
    9.5398   -1.5216   23.6138 C   0  0  0  0  0  0  0  0  0  0  0  0
    6.9682   -2.7808   26.4355 H   0  0  0  0  0  0  0  0  0  0  0  0
    4.0415    0.5810   23.0164 C   0  0  0  0  0  0  0  0  0  0  0  0
    3.8720    1.0438   21.5996 N   0  0  0  0  0  0  0  0  0  0  0  0
    2.8555    2.0326   21.1108 N   0  0  0  0  0  0  0  0  0  0  0  0
    3.0444    2.1989   19.6321 C   0  0  0  0  0  0  0  0  0  0  0  0
    4.1776    1.3129   19.2070 C   0  0  0  0  0  0  0  0  0  0  0  0
    4.8099    1.0640   17.8697 C   0  0  0  0  0  0  0  0  0  0  0  0
    5.9536    0.1011   17.7485 N   0  0  0  0  0  0  0  0  0  0  0  0
    6.4651   -0.6129   18.9645 C   0  0  0  0  0  0  0  0  0  0  0  0
    5.8328   -0.3639   20.3018 C   0  0  0  0  0  0  0  0  0  0  0  0
    4.6891    0.5990   20.4230 C   0  0  0  0  0  0  0  0  0  0  0  0
 19 20  1  0  0  0
 20 21  1  0  0  0
 21 22  2  0  0  0
 22 23  1  0  0  0
 23 24  2  0  0  0
 24 25  1  0  0  0
 25 26  2  0  0  0
 26 27  1  0  0  0
 27  1  1  0  0  0
  1  2  1  0  0  0
  2  3  2  0  0  0
  5  2  1  0  0  0
  5  6  1  0  0  0
  6  7  1  0  0  0
  7  8  1  0  0  0
  8  9  2  0  0  0
  8 10  2  0  0  0
  8 11  1  0  0  0
 11 12  2  0  0  0
 12 13  1  0  0  0
 13 14  2  0  0  0
 14 15  1  0  0  0
 14 16  1  0  0  0
 16 17  2  0  0  0
 27 28  2  0  0  0
 28 20  1  0  0  0
 28 23  1  0  0  0
 17  5  1  0  0  0
 17 11  1  0  0  0
  1  4  1  0  0  0
  7 18  1  0  0  0
M  END
> <minimizedAffinity>
-7.87979

> <CNNscore>
0.4198537767

> <CNNaffinity>
5.9610714912

> <CNN_VS>
2.5027782917

> <CNNaffinity_variance>
0.1344158351

$$$$



 28 31  0  0  0  0  0  0  0  0999 V2000
    9.3087   -1.4105   21.5844 N   0  0  0  0  0  0  0  0  0  0  0  0
    8.6010   -0.0889   21.5339 C   0  0  0  0  0  0  0  0  0  0  0  0
    9.0002    1.0120   22.4713 O   0  0  0  0  0  0  0  0  0  0  0  0
    9.0466   -2.1330   20.9692 H   0  0  0  0  0  0  0  0  0  0  0  0
    7.4940    0.1318   20.5460 C   0  0  0  0  0  0  0  0  0  0  0  0
    7.5288   -0.5574   19.2142 C   0  0  0  0  0  0  0  0  0  0  0  0
    6.4218   -0.3367   18.2264 N   0  0  0  0  0  0  0  0  0  0  0  0
    5.2800    0.5732   18.5703 S   0  0  0  0  0  0  0  0  0  0  0  0
    3.9954    1.3358   18.4354 O   0  0  0  0  0  0  0  0  0  0  0  0
    4.8687    0.1488   17.1916 O   0  0  0  0  0  0  0  0  0  0  0  0
    5.2452    1.2625   19.9021 C   0  0  0  0  0  0  0  0  0  0  0  0
    4.1034    2.1725   20.2460 C   0  0  0  0  0  0  0  0  0  0  0  0
    4.0687    2.8617   21.5778 C   0  0  0  0  0  0  0  0  0  0  0  0
    5.1756    2.6410   22.5657 C   0  0  0  0  0  0  0  0  0  0  0  0
    5.1408    3.3303   23.8975 Cl  0  0  0  0  0  0  0  0  0  0  0  0
    6.3174    1.7310   22.2218 C   0  0  0  0  0  0  0  0  0  0  0  0
    6.3522    1.0418   20.8900 C   0  0  0  0  0  0  0  0  0  0  0  0
    6.4455   -0.8054   17.3207 H   0  0  0  0  0  0  0  0  0  0  0  0
    7.6824   -3.3983   23.5091 C   0  0  0  0  0  0  0  0  0  0  0  0
    9.0102   -3.3269   24.2033 N   0  0  0  0  0  0  0  0  0  0  0  0
    9.3827   -4.0404   25.4691 N   0  0  0  0  0  0  0  0  0  0  0  0
   10.8013   -3.6841   25.8017 C   0  0  0  0  0  0  0  0  0  0  0  0
   11.3055   -2.7504   24.7415 C   0  0  0  0  0  0  0  0  0  0  0  0
   12.6296   -2.0726   24.5480 C   0  0  0  0  0  0  0  0  0  0  0  0
   12.8467   -1.1742   23.3667 N   0  0  0  0  0  0  0  0  0  0  0  0
   11.7397   -0.9534   22.3788 C   0  0  0  0  0  0  0  0  0  0  0  0
   10.4156   -1.6312   22.5723 C   0  0  0  0  0  0  0  0  0  0  0  0
   10.1985   -2.5297   23.7537 C   0  0  0  0  0  0  0  0  0  0  0  0
 19 20  1  0  0  0
 20 21  1  0  0  0
 21 22  2  0  0  0
 22 23  1  0  0  0
 23 24  2  0  0  0
 24 25  1  0  0  0
 25 26  2  0  0  0
 26 27  1  0  0  0
 27  1  1  0  0  0
  1  2  1  0  0  0
  2  3  2  0  0  0
  5  2  1  0  0  0
  5  6  1  0  0  0
  6  7  1  0  0  0
  7  8  1  0  0  0
  8  9  2  0  0  0
  8 10  2  0  0  0
  8 11  1  0  0  0
 11 12  2  0  0  0
 12 13  1  0  0  0
 13 14  2  0  0  0
 14 15  1  0  0  0
 14 16  1  0  0  0
 16 17  2  0  0  0
 27 28  2  0  0  0
 28 20  1  0  0  0
 28 23  1  0  0  0
 17  5  1  0  0  0
 17 11  1  0  0  0
  1  4  1  0  0  0
  7 18  1  0  0  0
M  END
> <minimizedAffinity>
-8.54949

> <CNNscore>
0.3742155135

> <CNNaffinity>
6.0754709244

> <CNN_VS>
2.2735354900

> <CNNaffinity_variance>
0.0993017778

$$$$



 28 31  0  0  0  0  0  0  0  0999 V2000
    9.5633   -3.9395   25.1556 N   0  0  0  0  0  0  0  0  0  0  0  0
    8.2949   -3.1955   25.4513 C   0  0  0  0  0  0  0  0  0  0  0  0
    8.3511   -1.7628   25.8922 O   0  0  0  0  0  0  0  0  0  0  0  0
    9.5264   -4.8798   24.8663 H   0  0  0  0  0  0  0  0  0  0  0  0
    6.9702   -3.8841   25.3061 C   0  0  0  0  0  0  0  0  0  0  0  0
    6.6192   -4.5715   24.0200 C   0  0  0  0  0  0  0  0  0  0  0  0
    5.2946   -5.2600   23.8748 N   0  0  0  0  0  0  0  0  0  0  0  0
    4.3209   -5.2612   25.0158 S   0  0  0  0  0  0  0  0  0  0  0  0
    3.0750   -5.5341   25.8054 O   0  0  0  0  0  0  0  0  0  0  0  0
    3.5372   -6.0434   24.0038 O   0  0  0  0  0  0  0  0  0  0  0  0
    4.6718   -4.5738   26.3020 C   0  0  0  0  0  0  0  0  0  0  0  0
    3.6982   -4.5750   27.4430 C   0  0  0  0  0  0  0  0  0  0  0  0
    4.0492   -3.8877   28.7292 C   0  0  0  0  0  0  0  0  0  0  0  0
    5.3738   -3.1991   28.8744 C   0  0  0  0  0  0  0  0  0  0  0  0
    5.7248   -2.5117   30.1606 Cl  0  0  0  0  0  0  0  0  0  0  0  0
    6.3475   -3.1979   27.7334 C   0  0  0  0  0  0  0  0  0  0  0  0
    5.9965   -3.8853   26.4472 C   0  0  0  0  0  0  0  0  0  0  0  0
    5.0559   -5.7275   23.0002 H   0  0  0  0  0  0  0  0  0  0  0  0
    9.3798   -2.2309   22.4450 C   0  0  0  0  0  0  0  0  0  0  0  0
   10.7126   -1.8004   22.9822 N   0  0  0  0  0  0  0  0  0  0  0  0
   11.6456   -0.8167   22.3406 N   0  0  0  0  0  0  0  0  0  0  0  0
   12.8559   -0.6863   23.2171 C   0  0  0  0  0  0  0  0  0  0  0  0
   12.6708   -1.5894   24.4002 C   0  0  0  0  0  0  0  0  0  0  0  0
   13.5374   -1.8738   25.5912 C   0  0  0  0  0  0  0  0  0  0  0  0
   13.0793   -2.8467   26.6369 N   0  0  0  0  0  0  0  0  0  0  0  0
   11.7546   -3.5353   26.4917 C   0  0  0  0  0  0  0  0  0  0  0  0
   10.8880   -3.2510   25.3008 C   0  0  0  0  0  0  0  0  0  0  0  0
   11.3461   -2.2780   24.2551 C   0  0  0  0  0  0  0  0  0  0  0  0
 19 20  1  0  0  0
 20 21  1  0  0  0
 21 22  2  0  0  0
 22 23  1  0  0  0
 23 24  2  0  0  0
 24 25  1  0  0  0
 25 26  2  0  0  0
 26 27  1  0  0  0
 27  1  1  0  0  0
  1  2  1  0  0  0
  2  3  2  0  0  0
  5  2  1  0  0  0
  5  6  1  0  0  0
  6  7  1  0  0  0
  7  8  1  0  0  0
  8  9  2  0  0  0
  8 10  2  0  0  0
  8 11  1  0  0  0
 11 12  2  0  0  0
 12 13  1  0  0  0
 13 14  2  0  0  0
 14 15  1  0  0  0
 14 16  1  0  0  0
 16 17  2  0  0  0
 27 28  2  0  0  0
 28 20  1  0  0  0
 28 23  1  0  0  0
 17  5  1  0  0  0
 17 11  1  0  0  0
  1  4  1  0  0  0
  7 18  1  0  0  0
M  END
> <minimizedAffinity>
-7.19201

> <CNNscore>
0.3692833483

> <CNNaffinity>
5.9309267998

> <CNN_VS>
2.1901924610

> <CNNaffinity_variance>
0.0827112049

$$$$



 28 31  0  0  0  0  0  0  0  0999 V2000
    9.8770    1.7419   23.1126 N   0  0  0  0  0  0  0  0  0  0  0  0
   10.6785    0.5297   23.4844 C   0  0  0  0  0  0  0  0  0  0  0  0
   12.1714    0.6233   23.5972 O   0  0  0  0  0  0  0  0  0  0  0  0
    8.8972    1.6804   23.0386 H   0  0  0  0  0  0  0  0  0  0  0  0
    9.9872   -0.7760   23.7435 C   0  0  0  0  0  0  0  0  0  0  0  0
    8.6416   -1.0454   23.1378 C   0  0  0  0  0  0  0  0  0  0  0  0
    7.9503   -2.3511   23.3969 N   0  0  0  0  0  0  0  0  0  0  0  0
    8.6046   -3.3875   24.2616 S   0  0  0  0  0  0  0  0  0  0  0  0
    8.8172   -4.6725   25.0058 O   0  0  0  0  0  0  0  0  0  0  0  0
    7.3328   -4.1031   23.9144 O   0  0  0  0  0  0  0  0  0  0  0  0
    9.9502   -3.1182   24.8673 C   0  0  0  0  0  0  0  0  0  0  0  0
   10.6045   -4.1546   25.7321 C   0  0  0  0  0  0  0  0  0  0  0  0
   11.9500   -3.8852   26.3377 C   0  0  0  0  0  0  0  0  0  0  0  0
   12.6413   -2.5794   26.0786 C   0  0  0  0  0  0  0  0  0  0  0  0
   13.9870   -2.3101   26.6843 Cl  0  0  0  0  0  0  0  0  0  0  0  0
   11.9871   -1.5431   25.2139 C   0  0  0  0  0  0  0  0  0  0  0  0
   10.6415   -1.8124   24.6083 C   0  0  0  0  0  0  0  0  0  0  0  0
    7.0353   -2.5343   22.9850 H   0  0  0  0  0  0  0  0  0  0  0  0
    7.3509    3.6181   23.7444 C   0  0  0  0  0  0  0  0  0  0  0  0
    8.3997    4.6327   23.3971 N   0  0  0  0  0  0  0  0  0  0  0  0
    8.2147    6.1212   23.3794 N   0  0  0  0  0  0  0  0  0  0  0  0
    9.5182    6.7454   22.9779 C   0  0  0  0  0  0  0  0  0  0  0  0
   10.5087    5.6429   22.7476 C   0  0  0  0  0  0  0  0  0  0  0  0
   11.9509    5.6591   22.3354 C   0  0  0  0  0  0  0  0  0  0  0  0
   12.7017    4.3696   22.1822 N   0  0  0  0  0  0  0  0  0  0  0  0
   12.0104    3.0639   22.4413 C   0  0  0  0  0  0  0  0  0  0  0  0
   10.5683    3.0476   22.8535 C   0  0  0  0  0  0  0  0  0  0  0  0
    9.8174    4.3371   23.0067 C   0  0  0  0  0  0  0  0  0  0  0  0
 19 20  1  0  0  0
 20 21  1  0  0  0
 21 22  2  0  0  0
 22 23  1  0  0  0
 23 24  2  0  0  0
 24 25  1  0  0  0
 25 26  2  0  0  0
 26 27  1  0  0  0
 27  1  1  0  0  0
  1  2  1  0  0  0
  2  3  2  0  0  0
  5  2  1  0  0  0
  5  6  1  0  0  0
  6  7  1  0  0  0
  7  8  1  0  0  0
  8  9  2  0  0  0
  8 10  2  0  0  0
  8 11  1  0  0  0
 11 12  2  0  0  0
 12 13  1  0  0  0
 13 14  2  0  0  0
 14 15  1  0  0  0
 14 16  1  0  0  0
 16 17  2  0  0  0
 27 28  2  0  0  0
 28 20  1  0  0  0
 28 23  1  0  0  0
 17  5  1  0  0  0
 17 11  1  0  0  0
  1  4  1  0  0  0
  7 18  1  0  0  0
M  END
> <minimizedAffinity>
-7.94027

> <CNNscore>
0.3628047407

> <CNNaffinity>
5.9583158493

> <CNN_VS>
2.1617052555

> <CNNaffinity_variance>
0.2684262097

$$$$



 28 31  0  0  0  0  0  0  0  0999 V2000
    8.5919   -1.7424   22.1584 N   0  0  0  0  0  0  0  0  0  0  0  0
    7.2356   -1.1074   22.2430 C   0  0  0  0  0  0  0  0  0  0  0  0
    6.4935   -1.0944   23.5466 O   0  0  0  0  0  0  0  0  0  0  0  0
    9.0789   -1.7509   21.3028 H   0  0  0  0  0  0  0  0  0  0  0  0
    6.6213   -0.4853   21.0241 C   0  0  0  0  0  0  0  0  0  0  0  0
    7.2919   -0.6286   19.6901 C   0  0  0  0  0  0  0  0  0  0  0  0
    6.6776   -0.0065   18.4712 N   0  0  0  0  0  0  0  0  0  0  0  0
    5.3928    0.7589   18.5864 S   0  0  0  0  0  0  0  0  0  0  0  0
    4.1965    1.5727   18.1905 O   0  0  0  0  0  0  0  0  0  0  0  0
    5.6479    0.8982   17.1148 O   0  0  0  0  0  0  0  0  0  0  0  0
    4.7222    0.9023   19.9205 C   0  0  0  0  0  0  0  0  0  0  0  0
    3.4373    1.6677   20.0356 C   0  0  0  0  0  0  0  0  0  0  0  0
    2.7668    1.8110   21.3697 C   0  0  0  0  0  0  0  0  0  0  0  0
    3.3811    1.1889   22.5886 C   0  0  0  0  0  0  0  0  0  0  0  0
    2.7104    1.3323   23.9227 Cl  0  0  0  0  0  0  0  0  0  0  0  0
    4.6659    0.4235   22.4734 C   0  0  0  0  0  0  0  0  0  0  0  0
    5.3364    0.2802   21.1394 C   0  0  0  0  0  0  0  0  0  0  0  0
    7.1336   -0.1040   17.5640 H   0  0  0  0  0  0  0  0  0  0  0  0
   10.8412    0.5014   22.6129 C   0  0  0  0  0  0  0  0  0  0  0  0
   11.1199   -0.4381   23.7486 N   0  0  0  0  0  0  0  0  0  0  0  0
   12.1979   -0.2798   24.7795 N   0  0  0  0  0  0  0  0  0  0  0  0
   12.1137   -1.4447   25.7207 C   0  0  0  0  0  0  0  0  0  0  0  0
   10.9837   -2.3228   25.2716 C   0  0  0  0  0  0  0  0  0  0  0  0
   10.4347   -3.6087   25.8150 C   0  0  0  0  0  0  0  0  0  0  0  0
    9.2714   -4.2723   25.1396 N   0  0  0  0  0  0  0  0  0  0  0  0
    8.6571   -3.6502   23.9207 C   0  0  0  0  0  0  0  0  0  0  0  0
    9.2061   -2.3645   23.3773 C   0  0  0  0  0  0  0  0  0  0  0  0
   10.3695   -1.7008   24.0527 C   0  0  0  0  0  0  0  0  0  0  0  0
 19 20  1  0  0  0
 20 21  1  0  0  0
 21 22  2  0  0  0
 22 23  1  0  0  0
 23 24  2  0  0  0
 24 25  1  0  0  0
 25 26  2  0  0  0
 26 27  1  0  0  0
 27  1  1  0  0  0
  1  2  1  0  0  0
  2  3  2  0  0  0
  5  2  1  0  0  0
  5  6  1  0  0  0
  6  7  1  0  0  0
  7  8  1  0  0  0
  8  9  2  0  0  0
  8 10  2  0  0  0
  8 11  1  0  0  0
 11 12  2  0  0  0
 12 13  1  0  0  0
 13 14  2  0  0  0
 14 15  1  0  0  0
 14 16  1  0  0  0
 16 17  2  0  0  0
 27 28  2  0  0  0
 28 20  1  0  0  0
 28 23  1  0  0  0
 17  5  1  0  0  0
 17 11  1  0  0  0
  1  4  1  0  0  0
  7 18  1  0  0  0
M  END
> <minimizedAffinity>
-8.20831

> <CNNscore>
0.3430148363

> <CNNaffinity>
5.9199495316

> <CNN_VS>
2.0306305885

> <CNNaffinity_variance>
0.0635325834

$$$$



 28 31  0  0  0  0  0  0  0  0999 V2000
    8.7994   -3.5900   24.8116 N   0  0  0  0  0  0  0  0  0  0  0  0
    7.6790   -2.8279   25.4549 C   0  0  0  0  0  0  0  0  0  0  0  0
    7.7259   -1.3296   25.5104 O   0  0  0  0  0  0  0  0  0  0  0  0
    8.7685   -4.5734   24.7751 H   0  0  0  0  0  0  0  0  0  0  0  0
    6.5116   -3.5640   26.0426 C   0  0  0  0  0  0  0  0  0  0  0  0
    6.1506   -3.3679   27.4852 C   0  0  0  0  0  0  0  0  0  0  0  0
    4.9833   -4.1040   28.0730 N   0  0  0  0  0  0  0  0  0  0  0  0
    4.1769   -5.0362   27.2182 S   0  0  0  0  0  0  0  0  0  0  0  0
    3.1174   -6.0188   26.8158 O   0  0  0  0  0  0  0  0  0  0  0  0
    3.4479   -5.1813   28.5211 O   0  0  0  0  0  0  0  0  0  0  0  0
    4.5379   -5.2323   25.7755 C   0  0  0  0  0  0  0  0  0  0  0  0
    3.7316   -6.1645   24.9206 C   0  0  0  0  0  0  0  0  0  0  0  0
    4.0926   -6.3606   23.4780 C   0  0  0  0  0  0  0  0  0  0  0  0
    5.2600   -5.6245   22.8903 C   0  0  0  0  0  0  0  0  0  0  0  0
    5.6210   -5.8207   21.4476 Cl  0  0  0  0  0  0  0  0  0  0  0  0
    6.0663   -4.6923   23.7451 C   0  0  0  0  0  0  0  0  0  0  0  0
    5.7053   -4.4962   25.1877 C   0  0  0  0  0  0  0  0  0  0  0  0
    4.7378   -3.9706   29.0540 H   0  0  0  0  0  0  0  0  0  0  0  0
   10.8203   -4.1156   27.2488 C   0  0  0  0  0  0  0  0  0  0  0  0
   11.6775   -3.3134   26.3150 N   0  0  0  0  0  0  0  0  0  0  0  0
   13.1032   -2.9121   26.5523 N   0  0  0  0  0  0  0  0  0  0  0  0
   13.5663   -2.1225   25.3640 C   0  0  0  0  0  0  0  0  0  0  0  0
   12.4269   -2.0359   24.3924 C   0  0  0  0  0  0  0  0  0  0  0  0
   12.3014   -1.3818   23.0483 C   0  0  0  0  0  0  0  0  0  0  0  0
   11.0087   -1.4639   22.2920 N   0  0  0  0  0  0  0  0  0  0  0  0
    9.8413   -2.2000   22.8798 C   0  0  0  0  0  0  0  0  0  0  0  0
    9.9667   -2.8540   24.2238 C   0  0  0  0  0  0  0  0  0  0  0  0
   11.2595   -2.7719   24.9802 C   0  0  0  0  0  0  0  0  0  0  0  0
 19 20  1  0  0  0
 20 21  1  0  0  0
 21 22  2  0  0  0
 22 23  1  0  0  0
 23 24  2  0  0  0
 24 25  1  0  0  0
 25 26  2  0  0  0
 26 27  1  0  0  0
 27  1  1  0  0  0
  1  2  1  0  0  0
  2  3  2  0  0  0
  5  2  1  0  0  0
  5  6  1  0  0  0
  6  7  1  0  0  0
  7  8  1  0  0  0
  8  9  2  0  0  0
  8 10  2  0  0  0
  8 11  1  0  0  0
 11 12  2  0  0  0
 12 13  1  0  0  0
 13 14  2  0  0  0
 14 15  1  0  0  0
 14 16  1  0  0  0
 16 17  2  0  0  0
 27 28  2  0  0  0
 28 20  1  0  0  0
 28 23  1  0  0  0
 17  5  1  0  0  0
 17 11  1  0  0  0
  1  4  1  0  0  0
  7 18  1  0  0  0
M  END
> <minimizedAffinity>
-7.26176

> <CNNscore>
0.3267678618

> <CNNaffinity>
5.9817762375

> <CNN_VS>
1.9546521902

> <CNNaffinity_variance>
0.0926446691

$$$$



 28 31  0  0  0  0  0  0  0  0999 V2000
    7.8460   -4.2772   24.0275 N   0  0  0  0  0  0  0  0  0  0  0  0
    8.0675   -3.0062   23.2623 C   0  0  0  0  0  0  0  0  0  0  0  0
    6.9118   -2.3217   22.5946 O   0  0  0  0  0  0  0  0  0  0  0  0
    8.6045   -4.7265   24.4657 H   0  0  0  0  0  0  0  0  0  0  0  0
    9.4446   -2.4198   23.1647 C   0  0  0  0  0  0  0  0  0  0  0  0
    9.8269   -1.5979   21.9696 C   0  0  0  0  0  0  0  0  0  0  0  0
   11.2040   -1.0115   21.8720 N   0  0  0  0  0  0  0  0  0  0  0  0
   12.1990   -1.2470   22.9695 S   0  0  0  0  0  0  0  0  0  0  0  0
   13.4814   -1.1902   23.7456 O   0  0  0  0  0  0  0  0  0  0  0  0
   13.0266   -0.4053   22.0439 O   0  0  0  0  0  0  0  0  0  0  0  0
   11.8168   -2.0689   24.1647 C   0  0  0  0  0  0  0  0  0  0  0  0
   12.8117   -2.3044   25.2622 C   0  0  0  0  0  0  0  0  0  0  0  0
   12.4295   -3.1263   26.4573 C   0  0  0  0  0  0  0  0  0  0  0  0
   11.0523   -3.7127   26.5549 C   0  0  0  0  0  0  0  0  0  0  0  0
   10.6701   -4.5346   27.7501 Cl  0  0  0  0  0  0  0  0  0  0  0  0
   10.0574   -3.4772   25.4574 C   0  0  0  0  0  0  0  0  0  0  0  0
   10.4396   -2.6553   24.2623 C   0  0  0  0  0  0  0  0  0  0  0  0
   11.4639   -0.4526   21.0593 H   0  0  0  0  0  0  0  0  0  0  0  0
    7.1280   -3.0339   26.8979 C   0  0  0  0  0  0  0  0  0  0  0  0
    5.8746   -3.7928   26.5769 N   0  0  0  0  0  0  0  0  0  0  0  0
    4.6533   -3.8846   27.4429 N   0  0  0  0  0  0  0  0  0  0  0  0
    3.6463   -4.7417   26.7348 C   0  0  0  0  0  0  0  0  0  0  0  0
    4.2452   -5.1795   25.4312 C   0  0  0  0  0  0  0  0  0  0  0  0
    3.7145   -6.0365   24.3203 C   0  0  0  0  0  0  0  0  0  0  0  0
    4.5609   -6.3070   23.1119 N   0  0  0  0  0  0  0  0  0  0  0  0
    5.9381   -5.7205   23.0143 C   0  0  0  0  0  0  0  0  0  0  0  0
    6.4688   -4.8636   24.1251 C   0  0  0  0  0  0  0  0  0  0  0  0
    5.6224   -4.5931   25.3336 C   0  0  0  0  0  0  0  0  0  0  0  0
 19 20  1  0  0  0
 20 21  1  0  0  0
 21 22  2  0  0  0
 22 23  1  0  0  0
 23 24  2  0  0  0
 24 25  1  0  0  0
 25 26  2  0  0  0
 26 27  1  0  0  0
 27  1  1  0  0  0
  1  2  1  0  0  0
  2  3  2  0  0  0
  5  2  1  0  0  0
  5  6  1  0  0  0
  6  7  1  0  0  0
  7  8  1  0  0  0
  8  9  2  0  0  0
  8 10  2  0  0  0
  8 11  1  0  0  0
 11 12  2  0  0  0
 12 13  1  0  0  0
 13 14  2  0  0  0
 14 15  1  0  0  0
 14 16  1  0  0  0
 16 17  2  0  0  0
 27 28  2  0  0  0
 28 20  1  0  0  0
 28 23  1  0  0  0
 17  5  1  0  0  0
 17 11  1  0  0  0
  1  4  1  0  0  0
  7 18  1  0  0  0
M  END
> <minimizedAffinity>
-8.05313

> <CNNscore>
0.2796012163

> <CNNaffinity>
5.8870306015

> <CNN_VS>
1.6460208893

> <CNNaffinity_variance>
0.1187231168

$$$$



 28 31  0  0  0  0  0  0  0  0999 V2000
    7.3769   -2.0287   22.8113 N   0  0  0  0  0  0  0  0  0  0  0  0
    7.1826   -0.5692   22.5246 C   0  0  0  0  0  0  0  0  0  0  0  0
    7.5787    0.4551   23.5464 O   0  0  0  0  0  0  0  0  0  0  0  0
    7.1170   -2.7009   22.1407 H   0  0  0  0  0  0  0  0  0  0  0  0
    6.5923   -0.1340   21.2161 C   0  0  0  0  0  0  0  0  0  0  0  0
    7.3414   -0.3735   19.9388 C   0  0  0  0  0  0  0  0  0  0  0  0
    6.7511    0.0617   18.6303 N   0  0  0  0  0  0  0  0  0  0  0  0
    5.4118    0.7364   18.5992 S   0  0  0  0  0  0  0  0  0  0  0  0
    4.1845    1.4091   18.0593 O   0  0  0  0  0  0  0  0  0  0  0  0
    5.7346    0.7306   17.1343 O   0  0  0  0  0  0  0  0  0  0  0  0
    4.6627    0.9759   19.8765 C   0  0  0  0  0  0  0  0  0  0  0  0
    3.3233    1.6506   19.8454 C   0  0  0  0  0  0  0  0  0  0  0  0
    2.5743    1.8900   21.1227 C   0  0  0  0  0  0  0  0  0  0  0  0
    3.1646    1.4548   22.4312 C   0  0  0  0  0  0  0  0  0  0  0  0
    2.4155    1.6943   23.7085 Cl  0  0  0  0  0  0  0  0  0  0  0  0
    4.5039    0.7801   22.4623 C   0  0  0  0  0  0  0  0  0  0  0  0
    5.2530    0.5407   21.1850 C   0  0  0  0  0  0  0  0  0  0  0  0
    7.2604   -0.1011   17.7618 H   0  0  0  0  0  0  0  0  0  0  0  0
   10.4449   -1.5519   21.9985 C   0  0  0  0  0  0  0  0  0  0  0  0
   10.5809   -2.0503   23.4067 N   0  0  0  0  0  0  0  0  0  0  0  0
   11.8675   -2.2417   24.1538 N   0  0  0  0  0  0  0  0  0  0  0  0
   11.5360   -2.7545   25.5239 C   0  0  0  0  0  0  0  0  0  0  0  0
   10.0447   -2.8800   25.6236 C   0  0  0  0  0  0  0  0  0  0  0  0
    9.1478   -3.3343   26.7368 C   0  0  0  0  0  0  0  0  0  0  0  0
    7.6607   -3.3534   26.5415 N   0  0  0  0  0  0  0  0  0  0  0  0
    7.0704   -2.9182   25.2330 C   0  0  0  0  0  0  0  0  0  0  0  0
    7.9672   -2.4639   24.1198 C   0  0  0  0  0  0  0  0  0  0  0  0
    9.4544   -2.4447   24.3151 C   0  0  0  0  0  0  0  0  0  0  0  0
 19 20  1  0  0  0
 20 21  1  0  0  0
 21 22  2  0  0  0
 22 23  1  0  0  0
 23 24  2  0  0  0
 24 25  1  0  0  0
 25 26  2  0  0  0
 26 27  1  0  0  0
 27  1  1  0  0  0
  1  2  1  0  0  0
  2  3  2  0  0  0
  5  2  1  0  0  0
  5  6  1  0  0  0
  6  7  1  0  0  0
  7  8  1  0  0  0
  8  9  2  0  0  0
  8 10  2  0  0  0
  8 11  1  0  0  0
 11 12  2  0  0  0
 12 13  1  0  0  0
 13 14  2  0  0  0
 14 15  1  0  0  0
 14 16  1  0  0  0
 16 17  2  0  0  0
 27 28  2  0  0  0
 28 20  1  0  0  0
 28 23  1  0  0  0
 17  5  1  0  0  0
 17 11  1  0  0  0
  1  4  1  0  0  0
  7 18  1  0  0  0
M  END
> <minimizedAffinity>
-7.65626

> <CNNscore>
0.2233674079

> <CNNaffinity>
5.7689528465

> <CNN_VS>
1.2885960340

> <CNNaffinity_variance>
0.1138284802

$$$$



 28 31  0  0  0  0  0  0  0  0999 V2000
    9.2825   -3.1937   23.4930 N   0  0  0  0  0  0  0  0  0  0  0  0
    7.9248   -2.7146   23.9138 C   0  0  0  0  0  0  0  0  0  0  0  0
    7.7342   -1.2935   24.3546 O   0  0  0  0  0  0  0  0  0  0  0  0
    9.4075   -4.1264   23.2037 H   0  0  0  0  0  0  0  0  0  0  0  0
    6.7576   -3.6566   23.8939 C   0  0  0  0  0  0  0  0  0  0  0  0
    6.3222   -4.2840   22.6029 C   0  0  0  0  0  0  0  0  0  0  0  0
    5.1550   -5.2260   22.5830 N   0  0  0  0  0  0  0  0  0  0  0  0
    4.4233   -5.5406   23.8540 S   0  0  0  0  0  0  0  0  0  0  0  0
    3.4192   -6.1460   24.7896 O   0  0  0  0  0  0  0  0  0  0  0  0
    3.6391   -6.3783   22.8879 O   0  0  0  0  0  0  0  0  0  0  0  0
    4.8587   -4.9131   25.1451 C   0  0  0  0  0  0  0  0  0  0  0  0
    4.1269   -5.2276   26.4161 C   0  0  0  0  0  0  0  0  0  0  0  0
    4.5624   -4.6002   27.7071 C   0  0  0  0  0  0  0  0  0  0  0  0
    5.7295   -3.6582   27.7270 C   0  0  0  0  0  0  0  0  0  0  0  0
    6.1649   -3.0307   29.0181 Cl  0  0  0  0  0  0  0  0  0  0  0  0
    6.4613   -3.3437   26.4560 C   0  0  0  0  0  0  0  0  0  0  0  0
    6.0258   -3.9711   25.1650 C   0  0  0  0  0  0  0  0  0  0  0  0
    4.8589   -5.6527   21.7051 H   0  0  0  0  0  0  0  0  0  0  0  0
   10.6896   -4.4194   26.1042 C   0  0  0  0  0  0  0  0  0  0  0  0
   11.6358   -3.3125   25.7442 N   0  0  0  0  0  0  0  0  0  0  0  0
   12.8917   -2.9518   26.4809 N   0  0  0  0  0  0  0  0  0  0  0  0
   13.5243   -1.7884   25.7765 C   0  0  0  0  0  0  0  0  0  0  0  0
   12.6595   -1.4301   24.6046 C   0  0  0  0  0  0  0  0  0  0  0  0
   12.7840   -0.3678   23.5528 C   0  0  0  0  0  0  0  0  0  0  0  0
   11.7413   -0.2474   22.4813 N   0  0  0  0  0  0  0  0  0  0  0  0
   10.5741   -1.1894   22.4613 C   0  0  0  0  0  0  0  0  0  0  0  0
   10.4496   -2.2517   23.5130 C   0  0  0  0  0  0  0  0  0  0  0  0
   11.4923   -2.3721   24.5846 C   0  0  0  0  0  0  0  0  0  0  0  0
 19 20  1  0  0  0
 20 21  1  0  0  0
 21 22  2  0  0  0
 22 23  1  0  0  0
 23 24  2  0  0  0
 24 25  1  0  0  0
 25 26  2  0  0  0
 26 27  1  0  0  0
 27  1  1  0  0  0
  1  2  1  0  0  0
  2  3  2  0  0  0
  5  2  1  0  0  0
  5  6  1  0  0  0
  6  7  1  0  0  0
  7  8  1  0  0  0
  8  9  2  0  0  0
  8 10  2  0  0  0
  8 11  1  0  0  0
 11 12  2  0  0  0
 12 13  1  0  0  0
 13 14  2  0  0  0
 14 15  1  0  0  0
 14 16  1  0  0  0
 16 17  2  0  0  0
 27 28  2  0  0  0
 28 20  1  0  0  0
 28 23  1  0  0  0
 17  5  1  0  0  0
 17 11  1  0  0  0
  1  4  1  0  0  0
  7 18  1  0  0  0
M  END
> <minimizedAffinity>
-7.33528

> <CNNscore>
0.2084358186

> <CNNaffinity>
5.7533378601

> <CNN_VS>
1.1992017031

> <CNNaffinity_variance>
0.1564377397

$$$$
