


 28 32  0  0  0  0  0  0  0  0999 V2000
   -4.9529   -3.7434  -19.2400 O   0  0  0  0  0  0  0  0  0  0  0  0
   -5.4739   -3.4288  -20.6110 C   0  0  0  0  0  0  0  0  0  0  0  0
   -6.0837   -4.4090  -21.5688 N   0  0  0  0  0  0  0  0  0  0  0  0
   -6.4633   -3.6649  -22.8146 C   0  0  0  0  0  0  0  0  0  0  0  0
   -6.9153   -5.0381  -23.2145 C   0  0  0  0  0  0  0  0  0  0  0  0
   -7.3712   -4.5020  -24.5393 C   0  0  0  0  0  0  0  0  0  0  0  0
   -6.9192   -3.1289  -24.1392 C   0  0  0  0  0  0  0  0  0  0  0  0
   -6.0882   -2.2247  -22.6267 C   0  0  0  0  0  0  0  0  0  0  0  0
   -6.2892   -1.1238  -23.6254 O   0  0  0  0  0  0  0  0  0  0  0  0
   -5.4767   -2.0788  -21.2648 N   0  0  0  0  0  0  0  0  0  0  0  0
   -6.2121   -5.3718  -21.4080 H   0  0  0  0  0  0  0  0  0  0  0  0
   -4.9590   -0.8064  -20.6624 C   0  0  0  0  0  0  0  0  0  0  0  0
   -5.3096   -0.4488  -19.2486 C   0  0  0  0  0  0  0  0  0  0  0  0
   -4.7919    0.8236  -18.6462 N   0  0  0  0  0  0  0  0  0  0  0  0
   -3.9234    1.7385  -19.4578 C   0  0  0  0  0  0  0  0  0  0  0  0
   -3.5727    1.3810  -20.8718 C   0  0  0  0  0  0  0  0  0  0  0  0
   -2.7043    2.2959  -21.6834 C   0  0  0  0  0  0  0  0  0  0  0  0
   -2.3536    1.9384  -23.0973 C   0  0  0  0  0  0  0  0  0  0  0  0
   -2.8714    0.6659  -23.6996 C   0  0  0  0  0  0  0  0  0  0  0  0
   -3.7398   -0.2490  -22.8880 C   0  0  0  0  0  0  0  0  0  0  0  0
   -4.0905    0.1086  -21.4741 C   0  0  0  0  0  0  0  0  0  0  0  0
   -8.0133   -5.0941  -25.7588 C   0  0  0  0  0  0  0  0  0  0  0  0
   -7.1788   -5.8356  -26.7607 C   0  0  0  0  0  0  0  0  0  0  0  0
   -7.8209   -6.4276  -27.9802 C   0  0  0  0  0  0  0  0  0  0  0  0
   -9.2976   -6.2782  -28.1977 C   0  0  0  0  0  0  0  0  0  0  0  0
  -10.1320   -5.5368  -27.1958 C   0  0  0  0  0  0  0  0  0  0  0  0
   -9.4899   -4.9447  -25.9764 C   0  0  0  0  0  0  0  0  0  0  0  0
  -10.3244   -4.2032  -24.9744 Cl  0  0  0  0  0  0  0  0  0  0  0  0
  1  2  2  0  0  0
  2  3  1  0  0  0
  3  4  1  0  0  0
  4  5  1  0  0  0
  5  6  1  0  0  0
  6 22  1  0  0  0
 22 23  2  0  0  0
 23 24  1  0  0  0
 24 25  2  0  0  0
 25 26  1  0  0  0
 26 27  2  0  0  0
 27 28  1  0  0  0
  6  7  1  0  0  0
  4  8  1  0  0  0
  8  9  2  0  0  0
  8 10  1  0  0  0
 10 12  1  0  0  0
 12 13  2  0  0  0
 13 14  1  0  0  0
 14 15  2  0  0  0
 15 16  1  0  0  0
 16 17  2  0  0  0
 17 18  1  0  0  0
 18 19  2  0  0  0
 19 20  1  0  0  0
 20 21  2  0  0  0
 10  2  1  0  0  0
 21 12  1  0  0  0
  7  4  1  0  0  0
 21 16  1  0  0  0
 27 22  1  0  0  0
  3 11  1  0  0  0
M  END
> <minimizedAffinity>
-7.07890

> <CNNscore>
0.7329620123

> <CNNaffinity>
5.8059639931

> <CNN_VS>
4.2555508614

> <CNNaffinity_variance>
0.1720482260

$$$$



 28 32  0  0  0  0  0  0  0  0999 V2000
   -6.9750   -0.7153  -18.5837 O   0  0  0  0  0  0  0  0  0  0  0  0
   -5.8812   -0.2945  -19.5200 C   0  0  0  0  0  0  0  0  0  0  0  0
   -4.7464    0.6298  -19.1913 N   0  0  0  0  0  0  0  0  0  0  0  0
   -3.8941    0.7715  -20.4174 C   0  0  0  0  0  0  0  0  0  0  0  0
   -3.1225    1.6637  -19.4908 C   0  0  0  0  0  0  0  0  0  0  0  0
   -2.1373    1.9484  -20.5856 C   0  0  0  0  0  0  0  0  0  0  0  0
   -2.9089    1.0562  -21.5121 C   0  0  0  0  0  0  0  0  0  0  0  0
   -4.5021   -0.0652  -21.5038 C   0  0  0  0  0  0  0  0  0  0  0  0
   -3.9745   -0.2166  -22.8998 O   0  0  0  0  0  0  0  0  0  0  0  0
   -5.7302   -0.7240  -20.9492 N   0  0  0  0  0  0  0  0  0  0  0  0
   -4.5888    1.0667  -18.3233 H   0  0  0  0  0  0  0  0  0  0  0  0
   -6.6464   -1.6498  -21.6931 C   0  0  0  0  0  0  0  0  0  0  0  0
   -6.2506   -3.0798  -21.9133 C   0  0  0  0  0  0  0  0  0  0  0  0
   -7.1669   -4.0056  -22.6572 N   0  0  0  0  0  0  0  0  0  0  0  0
   -8.4789   -3.5014  -23.1809 C   0  0  0  0  0  0  0  0  0  0  0  0
   -8.8748   -2.0714  -22.9608 C   0  0  0  0  0  0  0  0  0  0  0  0
  -10.1868   -1.5673  -23.4845 C   0  0  0  0  0  0  0  0  0  0  0  0
  -10.5826   -0.1373  -23.2644 C   0  0  0  0  0  0  0  0  0  0  0  0
   -9.6664    0.7885  -22.5204 C   0  0  0  0  0  0  0  0  0  0  0  0
   -8.3543    0.2843  -21.9967 C   0  0  0  0  0  0  0  0  0  0  0  0
   -7.9585   -1.1456  -22.2169 C   0  0  0  0  0  0  0  0  0  0  0  0
   -0.8950    2.7807  -20.7043 C   0  0  0  0  0  0  0  0  0  0  0  0
   -0.9979    4.2752  -20.7811 C   0  0  0  0  0  0  0  0  0  0  0  0
    0.2444    5.1074  -20.8998 C   0  0  0  0  0  0  0  0  0  0  0  0
    1.5896    4.4451  -20.9418 C   0  0  0  0  0  0  0  0  0  0  0  0
    1.6925    2.9506  -20.8651 C   0  0  0  0  0  0  0  0  0  0  0  0
    0.4502    2.1184  -20.7463 C   0  0  0  0  0  0  0  0  0  0  0  0
    0.5531    0.6239  -20.6696 Cl  0  0  0  0  0  0  0  0  0  0  0  0
  1  2  2  0  0  0
  2  3  1  0  0  0
  3  4  1  0  0  0
  4  5  1  0  0  0
  5  6  1  0  0  0
  6 22  1  0  0  0
 22 23  2  0  0  0
 23 24  1  0  0  0
 24 25  2  0  0  0
 25 26  1  0  0  0
 26 27  2  0  0  0
 27 28  1  0  0  0
  6  7  1  0  0  0
  4  8  1  0  0  0
  8  9  2  0  0  0
  8 10  1  0  0  0
 10 12  1  0  0  0
 12 13  2  0  0  0
 13 14  1  0  0  0
 14 15  2  0  0  0
 15 16  1  0  0  0
 16 17  2  0  0  0
 17 18  1  0  0  0
 18 19  2  0  0  0
 19 20  1  0  0  0
 20 21  2  0  0  0
 10  2  1  0  0  0
 21 12  1  0  0  0
  7  4  1  0  0  0
 21 16  1  0  0  0
 27 22  1  0  0  0
  3 11  1  0  0  0
M  END
> <minimizedAffinity>
-7.40794

> <CNNscore>
0.5464750528

> <CNNaffinity>
5.6226410866

> <CNN_VS>
3.0726330280

> <CNNaffinity_variance>
0.3122846782

$$$$



 28 32  0  0  0  0  0  0  0  0999 V2000
   -8.8373   -3.8316  -23.9891 O   0  0  0  0  0  0  0  0  0  0  0  0
   -8.2861   -2.5949  -23.3436 C   0  0  0  0  0  0  0  0  0  0  0  0
   -6.8344   -2.2858  -23.1269 N   0  0  0  0  0  0  0  0  0  0  0  0
   -6.7408   -0.9500  -22.4509 C   0  0  0  0  0  0  0  0  0  0  0  0
   -5.2779   -1.2666  -22.5485 C   0  0  0  0  0  0  0  0  0  0  0  0
   -4.9515    0.0357  -21.8795 C   0  0  0  0  0  0  0  0  0  0  0  0
   -6.4144    0.3522  -21.7819 C   0  0  0  0  0  0  0  0  0  0  0  0
   -8.1347   -0.4336  -22.2498 C   0  0  0  0  0  0  0  0  0  0  0  0
   -8.5080    0.8704  -21.6094 O   0  0  0  0  0  0  0  0  0  0  0  0
   -9.0897   -1.4502  -22.8015 N   0  0  0  0  0  0  0  0  0  0  0  0
   -6.0761   -2.8589  -23.3833 H   0  0  0  0  0  0  0  0  0  0  0  0
  -10.5858   -1.3413  -22.8098 C   0  0  0  0  0  0  0  0  0  0  0  0
  -11.4257   -2.5184  -22.4113 C   0  0  0  0  0  0  0  0  0  0  0  0
  -12.9217   -2.4095  -22.4195 N   0  0  0  0  0  0  0  0  0  0  0  0
  -13.5778   -1.1234  -22.8262 C   0  0  0  0  0  0  0  0  0  0  0  0
  -12.7379    0.0538  -23.2248 C   0  0  0  0  0  0  0  0  0  0  0  0
  -13.3940    1.3399  -23.6315 C   0  0  0  0  0  0  0  0  0  0  0  0
  -12.5541    2.5170  -24.0300 C   0  0  0  0  0  0  0  0  0  0  0  0
  -11.0581    2.4081  -24.0218 C   0  0  0  0  0  0  0  0  0  0  0  0
  -10.4020    1.1220  -23.6150 C   0  0  0  0  0  0  0  0  0  0  0  0
  -11.2419   -0.0551  -23.2165 C   0  0  0  0  0  0  0  0  0  0  0  0
   -3.6861    0.7327  -21.4755 C   0  0  0  0  0  0  0  0  0  0  0  0
   -2.6366    1.0372  -22.5030 C   0  0  0  0  0  0  0  0  0  0  0  0
   -1.3713    1.7341  -22.0989 C   0  0  0  0  0  0  0  0  0  0  0  0
   -1.1555    2.1265  -20.6673 C   0  0  0  0  0  0  0  0  0  0  0  0
   -2.2050    1.8220  -19.6398 C   0  0  0  0  0  0  0  0  0  0  0  0
   -3.4703    1.1251  -20.0439 C   0  0  0  0  0  0  0  0  0  0  0  0
   -4.5198    0.8205  -19.0164 Cl  0  0  0  0  0  0  0  0  0  0  0  0
  1  2  2  0  0  0
  2  3  1  0  0  0
  3  4  1  0  0  0
  4  5  1  0  0  0
  5  6  1  0  0  0
  6 22  1  0  0  0
 22 23  2  0  0  0
 23 24  1  0  0  0
 24 25  2  0  0  0
 25 26  1  0  0  0
 26 27  2  0  0  0
 27 28  1  0  0  0
  6  7  1  0  0  0
  4  8  1  0  0  0
  8  9  2  0  0  0
  8 10  1  0  0  0
 10 12  1  0  0  0
 12 13  2  0  0  0
 13 14  1  0  0  0
 14 15  2  0  0  0
 15 16  1  0  0  0
 16 17  2  0  0  0
 17 18  1  0  0  0
 18 19  2  0  0  0
 19 20  1  0  0  0
 20 21  2  0  0  0
 10  2  1  0  0  0
 21 12  1  0  0  0
  7  4  1  0  0  0
 21 16  1  0  0  0
 27 22  1  0  0  0
  3 11  1  0  0  0
M  END
> <minimizedAffinity>
-7.68479

> <CNNscore>
0.5101354122

> <CNNaffinity>
5.7334632874

> <CNN_VS>
2.9248425961

> <CNNaffinity_variance>
0.3154826760

$$$$



 28 32  0  0  0  0  0  0  0  0999 V2000
   -8.5767   -2.2527  -25.8768 O   0  0  0  0  0  0  0  0  0  0  0  0
   -8.0021   -1.5437  -24.6863 C   0  0  0  0  0  0  0  0  0  0  0  0
   -6.5654   -1.1546  -24.5006 N   0  0  0  0  0  0  0  0  0  0  0  0
   -6.4387   -0.4698  -23.1721 C   0  0  0  0  0  0  0  0  0  0  0  0
   -5.0072   -0.3926  -23.6134 C   0  0  0  0  0  0  0  0  0  0  0  0
   -4.6522    0.3130  -22.3381 C   0  0  0  0  0  0  0  0  0  0  0  0
   -6.0837    0.2358  -21.8969 C   0  0  0  0  0  0  0  0  0  0  0  0
   -7.7971   -0.4357  -22.5368 C   0  0  0  0  0  0  0  0  0  0  0  0
   -8.1307    0.1580  -21.2002 O   0  0  0  0  0  0  0  0  0  0  0  0
   -8.7634   -1.0994  -23.4726 N   0  0  0  0  0  0  0  0  0  0  0  0
   -5.8340   -1.3197  -25.1386 H   0  0  0  0  0  0  0  0  0  0  0  0
  -10.2328   -1.2860  -23.2363 C   0  0  0  0  0  0  0  0  0  0  0  0
  -10.7644   -2.6330  -22.8452 C   0  0  0  0  0  0  0  0  0  0  0  0
  -12.2339   -2.8196  -22.6088 N   0  0  0  0  0  0  0  0  0  0  0  0
  -13.1717   -1.6593  -22.7636 C   0  0  0  0  0  0  0  0  0  0  0  0
  -12.6401   -0.3122  -23.1548 C   0  0  0  0  0  0  0  0  0  0  0  0
  -13.5780    0.8481  -23.3096 C   0  0  0  0  0  0  0  0  0  0  0  0
  -13.0464    2.1951  -23.7007 C   0  0  0  0  0  0  0  0  0  0  0  0
  -11.5769    2.3817  -23.9371 C   0  0  0  0  0  0  0  0  0  0  0  0
  -10.6391    1.2214  -23.7823 C   0  0  0  0  0  0  0  0  0  0  0  0
  -11.1707   -0.1256  -23.3911 C   0  0  0  0  0  0  0  0  0  0  0  0
   -3.3889    0.8665  -21.7485 C   0  0  0  0  0  0  0  0  0  0  0  0
   -3.3590    1.3028  -20.3137 C   0  0  0  0  0  0  0  0  0  0  0  0
   -2.0956    1.8563  -19.7242 C   0  0  0  0  0  0  0  0  0  0  0  0
   -0.8621    1.9734  -20.5696 C   0  0  0  0  0  0  0  0  0  0  0  0
   -0.8919    1.5372  -22.0044 C   0  0  0  0  0  0  0  0  0  0  0  0
   -2.1553    0.9837  -22.5939 C   0  0  0  0  0  0  0  0  0  0  0  0
   -2.1851    0.5474  -24.0287 Cl  0  0  0  0  0  0  0  0  0  0  0  0
  1  2  2  0  0  0
  2  3  1  0  0  0
  3  4  1  0  0  0
  4  5  1  0  0  0
  5  6  1  0  0  0
  6 22  1  0  0  0
 22 23  2  0  0  0
 23 24  1  0  0  0
 24 25  2  0  0  0
 25 26  1  0  0  0
 26 27  2  0  0  0
 27 28  1  0  0  0
  6  7  1  0  0  0
  4  8  1  0  0  0
  8  9  2  0  0  0
  8 10  1  0  0  0
 10 12  1  0  0  0
 12 13  2  0  0  0
 13 14  1  0  0  0
 14 15  2  0  0  0
 15 16  1  0  0  0
 16 17  2  0  0  0
 17 18  1  0  0  0
 18 19  2  0  0  0
 19 20  1  0  0  0
 20 21  2  0  0  0
 10  2  1  0  0  0
 21 12  1  0  0  0
  7  4  1  0  0  0
 21 16  1  0  0  0
 27 22  1  0  0  0
  3 11  1  0  0  0
M  END
> <minimizedAffinity>
-7.45953

> <CNNscore>
0.4689767957

> <CNNaffinity>
5.5792360306

> <CNN_VS>
2.6165323257

> <CNNaffinity_variance>
0.0936362073

$$$$



 28 32  0  0  0  0  0  0  0  0999 V2000
   -8.7603   -0.8130  -20.9820 O   0  0  0  0  0  0  0  0  0  0  0  0
   -8.7056   -1.9059  -22.0080 C   0  0  0  0  0  0  0  0  0  0  0  0
   -7.5098   -2.7512  -22.3329 N   0  0  0  0  0  0  0  0  0  0  0  0
   -7.9023   -3.7131  -23.4149 C   0  0  0  0  0  0  0  0  0  0  0  0
   -6.4731   -4.1317  -23.2358 C   0  0  0  0  0  0  0  0  0  0  0  0
   -6.6442   -5.1719  -24.3029 C   0  0  0  0  0  0  0  0  0  0  0  0
   -8.0733   -4.7533  -24.4819 C   0  0  0  0  0  0  0  0  0  0  0  0
   -9.3407   -3.4623  -23.7586 C   0  0  0  0  0  0  0  0  0  0  0  0
  -10.1419   -4.1991  -24.7907 O   0  0  0  0  0  0  0  0  0  0  0  0
   -9.8372   -2.3454  -22.8891 N   0  0  0  0  0  0  0  0  0  0  0  0
   -6.6230   -2.6860  -21.9102 H   0  0  0  0  0  0  0  0  0  0  0  0
  -11.2220   -1.7692  -22.8991 C   0  0  0  0  0  0  0  0  0  0  0  0
  -12.3946   -2.6286  -22.5297 C   0  0  0  0  0  0  0  0  0  0  0  0
  -13.7795   -2.0523  -22.5396 N   0  0  0  0  0  0  0  0  0  0  0  0
  -13.9918   -0.6167  -22.9189 C   0  0  0  0  0  0  0  0  0  0  0  0
  -12.8192    0.2428  -23.2883 C   0  0  0  0  0  0  0  0  0  0  0  0
  -13.0315    1.6784  -23.6675 C   0  0  0  0  0  0  0  0  0  0  0  0
  -11.8589    2.5378  -24.0369 C   0  0  0  0  0  0  0  0  0  0  0  0
  -10.4740    1.9615  -24.0270 C   0  0  0  0  0  0  0  0  0  0  0  0
  -10.2617    0.5259  -23.6477 C   0  0  0  0  0  0  0  0  0  0  0  0
  -11.4343   -0.3335  -23.2784 C   0  0  0  0  0  0  0  0  0  0  0  0
   -5.7544   -6.2035  -24.9308 C   0  0  0  0  0  0  0  0  0  0  0  0
   -5.8342   -6.4654  -26.4056 C   0  0  0  0  0  0  0  0  0  0  0  0
   -4.9444   -7.4970  -27.0333 C   0  0  0  0  0  0  0  0  0  0  0  0
   -3.9747   -8.2666  -26.1863 C   0  0  0  0  0  0  0  0  0  0  0  0
   -3.8949   -8.0047  -24.7115 C   0  0  0  0  0  0  0  0  0  0  0  0
   -4.7847   -6.9731  -24.0838 C   0  0  0  0  0  0  0  0  0  0  0  0
   -4.7048   -6.7112  -22.6090 Cl  0  0  0  0  0  0  0  0  0  0  0  0
  1  2  2  0  0  0
  2  3  1  0  0  0
  3  4  1  0  0  0
  4  5  1  0  0  0
  5  6  1  0  0  0
  6 22  1  0  0  0
 22 23  2  0  0  0
 23 24  1  0  0  0
 24 25  2  0  0  0
 25 26  1  0  0  0
 26 27  2  0  0  0
 27 28  1  0  0  0
  6  7  1  0  0  0
  4  8  1  0  0  0
  8  9  2  0  0  0
  8 10  1  0  0  0
 10 12  1  0  0  0
 12 13  2  0  0  0
 13 14  1  0  0  0
 14 15  2  0  0  0
 15 16  1  0  0  0
 16 17  2  0  0  0
 17 18  1  0  0  0
 18 19  2  0  0  0
 19 20  1  0  0  0
 20 21  2  0  0  0
 10  2  1  0  0  0
 21 12  1  0  0  0
  7  4  1  0  0  0
 21 16  1  0  0  0
 27 22  1  0  0  0
  3 11  1  0  0  0
M  END
> <minimizedAffinity>
-7.54853

> <CNNscore>
0.4654778242

> <CNNaffinity>
5.9214935303

> <CNN_VS>
2.7563238144

> <CNNaffinity_variance>
0.1671387404

$$$$



 28 32  0  0  0  0  0  0  0  0999 V2000
   -5.5127   -0.3034  -18.5521 O   0  0  0  0  0  0  0  0  0  0  0  0
   -5.6480   -0.7475  -19.9785 C   0  0  0  0  0  0  0  0  0  0  0  0
   -6.5752   -1.8117  -20.4863 N   0  0  0  0  0  0  0  0  0  0  0  0
   -6.3802   -1.9273  -21.9691 C   0  0  0  0  0  0  0  0  0  0  0  0
   -7.4361   -2.9773  -21.7887 C   0  0  0  0  0  0  0  0  0  0  0  0
   -7.4059   -3.2606  -23.2614 C   0  0  0  0  0  0  0  0  0  0  0  0
   -6.3499   -2.2106  -23.4418 C   0  0  0  0  0  0  0  0  0  0  0  0
   -5.3325   -0.9346  -22.3776 C   0  0  0  0  0  0  0  0  0  0  0  0
   -4.8262   -0.7104  -23.7717 O   0  0  0  0  0  0  0  0  0  0  0  0
   -4.8800   -0.2054  -21.1474 N   0  0  0  0  0  0  0  0  0  0  0  0
   -7.2017   -2.3413  -19.9420 H   0  0  0  0  0  0  0  0  0  0  0  0
   -3.8417    0.8759  -21.0951 C   0  0  0  0  0  0  0  0  0  0  0  0
   -3.7771    1.7971  -19.9131 C   0  0  0  0  0  0  0  0  0  0  0  0
   -2.7388    2.8784  -19.8609 N   0  0  0  0  0  0  0  0  0  0  0  0
   -1.7653    3.0386  -20.9907 C   0  0  0  0  0  0  0  0  0  0  0  0
   -1.8299    2.1174  -22.1728 C   0  0  0  0  0  0  0  0  0  0  0  0
   -0.8564    2.2776  -23.3026 C   0  0  0  0  0  0  0  0  0  0  0  0
   -0.9211    1.3565  -24.4846 C   0  0  0  0  0  0  0  0  0  0  0  0
   -1.9593    0.2751  -24.5368 C   0  0  0  0  0  0  0  0  0  0  0  0
   -2.9328    0.1149  -23.4070 C   0  0  0  0  0  0  0  0  0  0  0  0
   -2.8682    1.0361  -22.2250 C   0  0  0  0  0  0  0  0  0  0  0  0
   -8.1313   -4.2034  -24.1752 C   0  0  0  0  0  0  0  0  0  0  0  0
   -9.4102   -3.7761  -24.8321 C   0  0  0  0  0  0  0  0  0  0  0  0
  -10.1355   -4.7191  -25.7458 C   0  0  0  0  0  0  0  0  0  0  0  0
   -9.5818   -6.0893  -26.0026 C   0  0  0  0  0  0  0  0  0  0  0  0
   -8.3028   -6.5166  -25.3456 C   0  0  0  0  0  0  0  0  0  0  0  0
   -7.5775   -5.5737  -24.4319 C   0  0  0  0  0  0  0  0  0  0  0  0
   -6.2985   -6.0009  -23.7750 Cl  0  0  0  0  0  0  0  0  0  0  0  0
  1  2  2  0  0  0
  2  3  1  0  0  0
  3  4  1  0  0  0
  4  5  1  0  0  0
  5  6  1  0  0  0
  6 22  1  0  0  0
 22 23  2  0  0  0
 23 24  1  0  0  0
 24 25  2  0  0  0
 25 26  1  0  0  0
 26 27  2  0  0  0
 27 28  1  0  0  0
  6  7  1  0  0  0
  4  8  1  0  0  0
  8  9  2  0  0  0
  8 10  1  0  0  0
 10 12  1  0  0  0
 12 13  2  0  0  0
 13 14  1  0  0  0
 14 15  2  0  0  0
 15 16  1  0  0  0
 16 17  2  0  0  0
 17 18  1  0  0  0
 18 19  2  0  0  0
 19 20  1  0  0  0
 20 21  2  0  0  0
 10  2  1  0  0  0
 21 12  1  0  0  0
  7  4  1  0  0  0
 21 16  1  0  0  0
 27 22  1  0  0  0
  3 11  1  0  0  0
M  END
> <minimizedAffinity>
-6.02102

> <CNNscore>
0.4035427570

> <CNNaffinity>
5.6852016449

> <CNN_VS>
2.2942218781

> <CNNaffinity_variance>
0.6952406168

$$$$



 28 32  0  0  0  0  0  0  0  0999 V2000
   -7.2880   -0.4075  -19.1631 O   0  0  0  0  0  0  0  0  0  0  0  0
   -7.0481   -0.9200  -20.5522 C   0  0  0  0  0  0  0  0  0  0  0  0
   -7.8451   -1.9820  -21.2500 N   0  0  0  0  0  0  0  0  0  0  0  0
   -7.2587   -2.1788  -22.6166 C   0  0  0  0  0  0  0  0  0  0  0  0
   -8.3662   -3.1878  -22.6889 C   0  0  0  0  0  0  0  0  0  0  0  0
   -7.9479   -3.5469  -24.0840 C   0  0  0  0  0  0  0  0  0  0  0  0
   -6.8404   -2.5378  -24.0116 C   0  0  0  0  0  0  0  0  0  0  0  0
   -6.0994   -1.2384  -22.7633 C   0  0  0  0  0  0  0  0  0  0  0  0
   -5.2239   -1.1002  -23.9735 O   0  0  0  0  0  0  0  0  0  0  0  0
   -5.9692   -0.4603  -21.4875 N   0  0  0  0  0  0  0  0  0  0  0  0
   -8.6174   -2.4651  -20.8766 H   0  0  0  0  0  0  0  0  0  0  0  0
   -4.9407    0.5924  -21.1978 C   0  0  0  0  0  0  0  0  0  0  0  0
   -3.8881    0.3465  -20.1579 C   0  0  0  0  0  0  0  0  0  0  0  0
   -2.8596    1.3993  -19.8682 N   0  0  0  0  0  0  0  0  0  0  0  0
   -2.8838    2.6980  -20.6184 C   0  0  0  0  0  0  0  0  0  0  0  0
   -3.9365    2.9439  -21.6584 C   0  0  0  0  0  0  0  0  0  0  0  0
   -3.9607    4.2426  -22.4086 C   0  0  0  0  0  0  0  0  0  0  0  0
   -5.0133    4.4885  -23.4485 C   0  0  0  0  0  0  0  0  0  0  0  0
   -6.0418    3.4357  -23.7382 C   0  0  0  0  0  0  0  0  0  0  0  0
   -6.0176    2.1370  -22.9880 C   0  0  0  0  0  0  0  0  0  0  0  0
   -4.9650    1.8911  -21.9481 C   0  0  0  0  0  0  0  0  0  0  0  0
   -8.4354   -4.5143  -25.1215 C   0  0  0  0  0  0  0  0  0  0  0  0
   -9.1318   -4.0088  -26.3501 C   0  0  0  0  0  0  0  0  0  0  0  0
   -9.6192   -4.9763  -27.3875 C   0  0  0  0  0  0  0  0  0  0  0  0
   -9.4102   -6.4493  -27.1964 C   0  0  0  0  0  0  0  0  0  0  0  0
   -8.7138   -6.9548  -25.9678 C   0  0  0  0  0  0  0  0  0  0  0  0
   -8.2264   -5.9873  -24.9304 C   0  0  0  0  0  0  0  0  0  0  0  0
   -7.5300   -6.4928  -23.7018 Cl  0  0  0  0  0  0  0  0  0  0  0  0
  1  2  2  0  0  0
  2  3  1  0  0  0
  3  4  1  0  0  0
  4  5  1  0  0  0
  5  6  1  0  0  0
  6 22  1  0  0  0
 22 23  2  0  0  0
 23 24  1  0  0  0
 24 25  2  0  0  0
 25 26  1  0  0  0
 26 27  2  0  0  0
 27 28  1  0  0  0
  6  7  1  0  0  0
  4  8  1  0  0  0
  8  9  2  0  0  0
  8 10  1  0  0  0
 10 12  1  0  0  0
 12 13  2  0  0  0
 13 14  1  0  0  0
 14 15  2  0  0  0
 15 16  1  0  0  0
 16 17  2  0  0  0
 17 18  1  0  0  0
 18 19  2  0  0  0
 19 20  1  0  0  0
 20 21  2  0  0  0
 10  2  1  0  0  0
 21 12  1  0  0  0
  7  4  1  0  0  0
 21 16  1  0  0  0
 27 22  1  0  0  0
  3 11  1  0  0  0
M  END
> <minimizedAffinity>
-6.72377

> <CNNscore>
0.4018274546

> <CNNaffinity>
5.6447997093

> <CNN_VS>
2.2682354450

> <CNNaffinity_variance>
0.3627797067

$$$$



 28 32  0  0  0  0  0  0  0  0999 V2000
   -7.2686   -0.3927  -19.0733 O   0  0  0  0  0  0  0  0  0  0  0  0
   -7.0430   -0.9511  -20.4471 C   0  0  0  0  0  0  0  0  0  0  0  0
   -7.8256   -2.0586  -21.0881 N   0  0  0  0  0  0  0  0  0  0  0  0
   -7.2615   -2.2920  -22.4582 C   0  0  0  0  0  0  0  0  0  0  0  0
   -8.3435   -3.3307  -22.4699 C   0  0  0  0  0  0  0  0  0  0  0  0
   -7.9437   -3.7315  -23.8590 C   0  0  0  0  0  0  0  0  0  0  0  0
   -6.8617   -2.6928  -23.8472 C   0  0  0  0  0  0  0  0  0  0  0  0
   -6.1302   -1.3287  -22.6639 C   0  0  0  0  0  0  0  0  0  0  0  0
   -5.2827   -1.2143  -23.8963 O   0  0  0  0  0  0  0  0  0  0  0  0
   -5.9952   -0.5000  -21.4210 N   0  0  0  0  0  0  0  0  0  0  0  0
   -8.5776   -2.5466  -20.6810 H   0  0  0  0  0  0  0  0  0  0  0  0
   -4.9890    0.5887  -21.1921 C   0  0  0  0  0  0  0  0  0  0  0  0
   -3.8704    0.3827  -20.2143 C   0  0  0  0  0  0  0  0  0  0  0  0
   -2.8642    1.4713  -19.9854 N   0  0  0  0  0  0  0  0  0  0  0  0
   -2.9766    2.7660  -20.7344 C   0  0  0  0  0  0  0  0  0  0  0  0
   -4.0952    2.9721  -21.7123 C   0  0  0  0  0  0  0  0  0  0  0  0
   -4.2076    4.2669  -22.4613 C   0  0  0  0  0  0  0  0  0  0  0  0
   -5.3263    4.4729  -23.4391 C   0  0  0  0  0  0  0  0  0  0  0  0
   -6.3324    3.3842  -23.6680 C   0  0  0  0  0  0  0  0  0  0  0  0
   -6.2200    2.0895  -22.9190 C   0  0  0  0  0  0  0  0  0  0  0  0
   -5.1014    1.8835  -21.9412 C   0  0  0  0  0  0  0  0  0  0  0  0
   -8.4262   -4.7495  -24.8494 C   0  0  0  0  0  0  0  0  0  0  0  0
   -7.5201   -5.8642  -25.2811 C   0  0  0  0  0  0  0  0  0  0  0  0
   -8.0027   -6.8821  -26.2716 C   0  0  0  0  0  0  0  0  0  0  0  0
   -9.3914   -6.7853  -26.8303 C   0  0  0  0  0  0  0  0  0  0  0  0
  -10.2975   -5.6706  -26.3985 C   0  0  0  0  0  0  0  0  0  0  0  0
   -9.8149   -4.6527  -25.4081 C   0  0  0  0  0  0  0  0  0  0  0  0
  -10.7210   -3.5380  -24.9764 Cl  0  0  0  0  0  0  0  0  0  0  0  0
  1  2  2  0  0  0
  2  3  1  0  0  0
  3  4  1  0  0  0
  4  5  1  0  0  0
  5  6  1  0  0  0
  6 22  1  0  0  0
 22 23  2  0  0  0
 23 24  1  0  0  0
 24 25  2  0  0  0
 25 26  1  0  0  0
 26 27  2  0  0  0
 27 28  1  0  0  0
  6  7  1  0  0  0
  4  8  1  0  0  0
  8  9  2  0  0  0
  8 10  1  0  0  0
 10 12  1  0  0  0
 12 13  2  0  0  0
 13 14  1  0  0  0
 14 15  2  0  0  0
 15 16  1  0  0  0
 16 17  2  0  0  0
 17 18  1  0  0  0
 18 19  2  0  0  0
 19 20  1  0  0  0
 20 21  2  0  0  0
 10  2  1  0  0  0
 21 12  1  0  0  0
  7  4  1  0  0  0
 21 16  1  0  0  0
 27 22  1  0  0  0
  3 11  1  0  0  0
M  END
> <minimizedAffinity>
-6.70313

> <CNNscore>
0.4016193449

> <CNNaffinity>
5.5856432915

> <CNN_VS>
2.2433023453

> <CNNaffinity_variance>
0.3079677224

$$$$



 28 32  0  0  0  0  0  0  0  0999 V2000
   -5.5239   -1.7590  -24.4289 O   0  0  0  0  0  0  0  0  0  0  0  0
   -6.9657   -1.3796  -24.2640 C   0  0  0  0  0  0  0  0  0  0  0  0
   -7.5162    0.0157  -24.2679 N   0  0  0  0  0  0  0  0  0  0  0  0
   -9.0009   -0.0712  -24.0726 C   0  0  0  0  0  0  0  0  0  0  0  0
   -8.8638    1.4193  -24.1699 C   0  0  0  0  0  0  0  0  0  0  0  0
  -10.3454    1.5674  -23.9875 C   0  0  0  0  0  0  0  0  0  0  0  0
  -10.4823    0.0768  -23.8902 C   0  0  0  0  0  0  0  0  0  0  0  0
   -9.3679   -1.5203  -23.9480 C   0  0  0  0  0  0  0  0  0  0  0  0
  -10.7502   -2.0650  -23.7414 O   0  0  0  0  0  0  0  0  0  0  0  0
   -8.1101   -2.3289  -24.0663 N   0  0  0  0  0  0  0  0  0  0  0  0
   -6.9946    0.8433  -24.3791 H   0  0  0  0  0  0  0  0  0  0  0  0
   -8.0137   -3.8243  -23.9988 C   0  0  0  0  0  0  0  0  0  0  0  0
   -7.4196   -4.4837  -22.7896 C   0  0  0  0  0  0  0  0  0  0  0  0
   -7.3232   -5.9791  -22.7220 N   0  0  0  0  0  0  0  0  0  0  0  0
   -7.8208   -6.8150  -23.8637 C   0  0  0  0  0  0  0  0  0  0  0  0
   -8.4150   -6.1557  -25.0730 C   0  0  0  0  0  0  0  0  0  0  0  0
   -8.9126   -6.9916  -26.2146 C   0  0  0  0  0  0  0  0  0  0  0  0
   -9.5067   -6.3322  -27.4238 C   0  0  0  0  0  0  0  0  0  0  0  0
   -9.6031   -4.8369  -27.4914 C   0  0  0  0  0  0  0  0  0  0  0  0
   -9.1055   -4.0009  -26.3497 C   0  0  0  0  0  0  0  0  0  0  0  0
   -8.5114   -4.6603  -25.1405 C   0  0  0  0  0  0  0  0  0  0  0  0
  -11.2960    2.7261  -23.9274 C   0  0  0  0  0  0  0  0  0  0  0  0
  -10.7845    4.1256  -24.0998 C   0  0  0  0  0  0  0  0  0  0  0  0
  -11.7352    5.2843  -24.0396 C   0  0  0  0  0  0  0  0  0  0  0  0
  -13.1974    5.0435  -23.8070 C   0  0  0  0  0  0  0  0  0  0  0  0
  -13.7089    3.6440  -23.6346 C   0  0  0  0  0  0  0  0  0  0  0  0
  -12.7582    2.4853  -23.6947 C   0  0  0  0  0  0  0  0  0  0  0  0
  -13.2696    1.0858  -23.5223 Cl  0  0  0  0  0  0  0  0  0  0  0  0
  1  2  2  0  0  0
  2  3  1  0  0  0
  3  4  1  0  0  0
  4  5  1  0  0  0
  5  6  1  0  0  0
  6 22  1  0  0  0
 22 23  2  0  0  0
 23 24  1  0  0  0
 24 25  2  0  0  0
 25 26  1  0  0  0
 26 27  2  0  0  0
 27 28  1  0  0  0
  6  7  1  0  0  0
  4  8  1  0  0  0
  8  9  2  0  0  0
  8 10  1  0  0  0
 10 12  1  0  0  0
 12 13  2  0  0  0
 13 14  1  0  0  0
 14 15  2  0  0  0
 15 16  1  0  0  0
 16 17  2  0  0  0
 17 18  1  0  0  0
 18 19  2  0  0  0
 19 20  1  0  0  0
 20 21  2  0  0  0
 10  2  1  0  0  0
 21 12  1  0  0  0
  7  4  1  0  0  0
 21 16  1  0  0  0
 27 22  1  0  0  0
  3 11  1  0  0  0
M  END
> <minimizedAffinity>
-7.36077

> <CNNscore>
0.3859658539

> <CNNaffinity>
5.7203803062

> <CNN_VS>
2.2078714371

> <CNNaffinity_variance>
0.1697998345

$$$$
