


 28 32  0  0  0  0  0  0  0  0999 V2000
    4.7495   -3.1605   21.4553 O   0  0  0  0  0  0  0  0  0  0  0  0
    6.0695   -2.5253   21.7781 C   0  0  0  0  0  0  0  0  0  0  0  0
    7.0760   -3.0369   22.7656 N   0  0  0  0  0  0  0  0  0  0  0  0
    8.2433   -2.0949   22.7680 C   0  0  0  0  0  0  0  0  0  0  0  0
    8.7313   -3.0759   23.7924 C   0  0  0  0  0  0  0  0  0  0  0  0
    9.9905   -2.2774   23.9570 C   0  0  0  0  0  0  0  0  0  0  0  0
    9.5024   -1.2965   22.9327 C   0  0  0  0  0  0  0  0  0  0  0  0
    7.9581   -1.0011   21.7820 C   0  0  0  0  0  0  0  0  0  0  0  0
    8.8584    0.1557   21.4637 O   0  0  0  0  0  0  0  0  0  0  0  0
    6.6147   -1.2671   21.1702 N   0  0  0  0  0  0  0  0  0  0  0  0
    6.9863   -3.8486   23.3156 H   0  0  0  0  0  0  0  0  0  0  0  0
    5.9356   -0.4230   20.1327 C   0  0  0  0  0  0  0  0  0  0  0  0
    6.3822   -0.4892   18.7023 C   0  0  0  0  0  0  0  0  0  0  0  0
    5.7031    0.3549   17.6647 N   0  0  0  0  0  0  0  0  0  0  0  0
    4.5775    1.2651   18.0576 C   0  0  0  0  0  0  0  0  0  0  0  0
    4.1308    1.3313   19.4881 C   0  0  0  0  0  0  0  0  0  0  0  0
    3.0052    2.2414   19.8810 C   0  0  0  0  0  0  0  0  0  0  0  0
    2.5586    2.3076   21.3114 C   0  0  0  0  0  0  0  0  0  0  0  0
    3.2376    1.4636   22.3489 C   0  0  0  0  0  0  0  0  0  0  0  0
    4.3633    0.5534   21.9561 C   0  0  0  0  0  0  0  0  0  0  0  0
    4.8099    0.4872   20.5256 C   0  0  0  0  0  0  0  0  0  0  0  0
   11.2259   -2.4066   24.7978 C   0  0  0  0  0  0  0  0  0  0  0  0
   12.3661   -1.4507   24.6076 C   0  0  0  0  0  0  0  0  0  0  0  0
   13.6015   -1.5800   25.4485 C   0  0  0  0  0  0  0  0  0  0  0  0
   13.6967   -2.6653   26.4796 C   0  0  0  0  0  0  0  0  0  0  0  0
   12.5565   -3.6212   26.6699 C   0  0  0  0  0  0  0  0  0  0  0  0
   11.3212   -3.4919   25.8290 C   0  0  0  0  0  0  0  0  0  0  0  0
   10.1810   -4.4478   26.0192 Cl  0  0  0  0  0  0  0  0  0  0  0  0
  1  2  2  0  0  0
  2  3  1  0  0  0
  3  4  1  0  0  0
  4  5  1  0  0  0
  5  6  1  0  0  0
  6 22  1  0  0  0
 22 23  2  0  0  0
 23 24  1  0  0  0
 24 25  2  0  0  0
 25 26  1  0  0  0
 26 27  2  0  0  0
 27 28  1  0  0  0
  6  7  1  0  0  0
  4  8  1  0  0  0
  8  9  2  0  0  0
  8 10  1  0  0  0
 10 12  1  0  0  0
 12 13  2  0  0  0
 13 14  1  0  0  0
 14 15  2  0  0  0
 15 16  1  0  0  0
 16 17  2  0  0  0
 17 18  1  0  0  0
 18 19  2  0  0  0
 19 20  1  0  0  0
 20 21  2  0  0  0
 10  2  1  0  0  0
 21 12  1  0  0  0
  7  4  1  0  0  0
 21 16  1  0  0  0
 27 22  1  0  0  0
  3 11  1  0  0  0
M  END
> <minimizedAffinity>
-8.74947

> <CNNscore>
0.9168612957

> <CNNaffinity>
6.4533433914

> <CNN_VS>
5.9168210030

> <CNNaffinity_variance>
0.0893255696

$$$$



 28 32  0  0  0  0  0  0  0  0999 V2000
    6.9861   -0.0405   18.5847 O   0  0  0  0  0  0  0  0  0  0  0  0
    7.3475   -0.0824   20.0399 C   0  0  0  0  0  0  0  0  0  0  0  0
    8.5333   -0.7831   20.6341 N   0  0  0  0  0  0  0  0  0  0  0  0
    8.5052   -0.5647   22.1178 C   0  0  0  0  0  0  0  0  0  0  0  0
    9.7500   -1.3965   22.0265 C   0  0  0  0  0  0  0  0  0  0  0  0
    9.9187   -1.3072   23.5144 C   0  0  0  0  0  0  0  0  0  0  0  0
    8.6738   -0.4754   23.6056 C   0  0  0  0  0  0  0  0  0  0  0  0
    7.3020    0.2708   22.4406 C   0  0  0  0  0  0  0  0  0  0  0  0
    6.8872    0.7281   23.8077 O   0  0  0  0  0  0  0  0  0  0  0  0
    6.5865    0.5689   21.1564 N   0  0  0  0  0  0  0  0  0  0  0  0
    9.2110   -1.2961   20.1374 H   0  0  0  0  0  0  0  0  0  0  0  0
    5.3305    1.3765   21.0138 C   0  0  0  0  0  0  0  0  0  0  0  0
    4.0710    0.7246   20.5255 C   0  0  0  0  0  0  0  0  0  0  0  0
    2.8151    1.5322   20.3828 N   0  0  0  0  0  0  0  0  0  0  0  0
    2.8187    2.9918   20.7285 C   0  0  0  0  0  0  0  0  0  0  0  0
    4.0782    3.6438   21.2169 C   0  0  0  0  0  0  0  0  0  0  0  0
    4.0818    5.1034   21.5625 C   0  0  0  0  0  0  0  0  0  0  0  0
    5.3413    5.7554   22.0509 C   0  0  0  0  0  0  0  0  0  0  0  0
    6.5972    4.9478   22.1935 C   0  0  0  0  0  0  0  0  0  0  0  0
    6.5937    3.4882   21.8478 C   0  0  0  0  0  0  0  0  0  0  0  0
    5.3342    2.8362   21.3595 C   0  0  0  0  0  0  0  0  0  0  0  0
   10.9183   -1.8323   24.5019 C   0  0  0  0  0  0  0  0  0  0  0  0
   10.5729   -3.0094   25.3651 C   0  0  0  0  0  0  0  0  0  0  0  0
   11.5726   -3.5344   26.3525 C   0  0  0  0  0  0  0  0  0  0  0  0
   12.9177   -2.8823   26.4767 C   0  0  0  0  0  0  0  0  0  0  0  0
   13.2631   -1.7052   25.6135 C   0  0  0  0  0  0  0  0  0  0  0  0
   12.2634   -1.1802   24.6261 C   0  0  0  0  0  0  0  0  0  0  0  0
   12.6089   -0.0031   23.7629 Cl  0  0  0  0  0  0  0  0  0  0  0  0
  1  2  2  0  0  0
  2  3  1  0  0  0
  3  4  1  0  0  0
  4  5  1  0  0  0
  5  6  1  0  0  0
  6 22  1  0  0  0
 22 23  2  0  0  0
 23 24  1  0  0  0
 24 25  2  0  0  0
 25 26  1  0  0  0
 26 27  2  0  0  0
 27 28  1  0  0  0
  6  7  1  0  0  0
  4  8  1  0  0  0
  8  9  2  0  0  0
  8 10  1  0  0  0
 10 12  1  0  0  0
 12 13  2  0  0  0
 13 14  1  0  0  0
 14 15  2  0  0  0
 15 16  1  0  0  0
 16 17  2  0  0  0
 17 18  1  0  0  0
 18 19  2  0  0  0
 19 20  1  0  0  0
 20 21  2  0  0  0
 10  2  1  0  0  0
 21 12  1  0  0  0
  7  4  1  0  0  0
 21 16  1  0  0  0
 27 22  1  0  0  0
  3 11  1  0  0  0
M  END
> <minimizedAffinity>
-8.77341

> <CNNscore>
0.7772083879

> <CNNaffinity>
6.3389801979

> <CNN_VS>
4.9267086983

> <CNNaffinity_variance>
0.3366981149

$$$$



 28 32  0  0  0  0  0  0  0  0999 V2000
    6.6089   -0.1207   19.3944 O   0  0  0  0  0  0  0  0  0  0  0  0
    7.2166   -0.0712   20.7649 C   0  0  0  0  0  0  0  0  0  0  0  0
    8.3764   -0.8922   21.2452 N   0  0  0  0  0  0  0  0  0  0  0  0
    8.6479   -0.5204   22.6729 C   0  0  0  0  0  0  0  0  0  0  0  0
    9.7227   -1.5506   22.4902 C   0  0  0  0  0  0  0  0  0  0  0  0
   10.1678   -1.3372   23.9067 C   0  0  0  0  0  0  0  0  0  0  0  0
    9.0929   -0.3071   24.0893 C   0  0  0  0  0  0  0  0  0  0  0  0
    7.6558    0.5304   23.0748 C   0  0  0  0  0  0  0  0  0  0  0  0
    7.5644    1.1882   24.4198 O   0  0  0  0  0  0  0  0  0  0  0  0
    6.7713    0.8081   21.8956 N   0  0  0  0  0  0  0  0  0  0  0  0
    8.8724   -1.5582   20.7164 H   0  0  0  0  0  0  0  0  0  0  0  0
    5.6400    1.7922   21.8544 C   0  0  0  0  0  0  0  0  0  0  0  0
    5.6997    2.9650   20.9211 C   0  0  0  0  0  0  0  0  0  0  0  0
    4.5685    3.9491   20.8799 N   0  0  0  0  0  0  0  0  0  0  0  0
    3.3774    3.7605   21.7720 C   0  0  0  0  0  0  0  0  0  0  0  0
    3.3176    2.5877   22.7053 C   0  0  0  0  0  0  0  0  0  0  0  0
    2.1266    2.3991   23.5974 C   0  0  0  0  0  0  0  0  0  0  0  0
    2.0669    1.2264   24.5307 C   0  0  0  0  0  0  0  0  0  0  0  0
    3.1981    0.2422   24.5719 C   0  0  0  0  0  0  0  0  0  0  0  0
    4.3892    0.4308   23.6798 C   0  0  0  0  0  0  0  0  0  0  0  0
    4.4489    1.6036   22.7465 C   0  0  0  0  0  0  0  0  0  0  0  0
   11.2426   -1.9149   24.7791 C   0  0  0  0  0  0  0  0  0  0  0  0
   10.8952   -2.9391   25.8186 C   0  0  0  0  0  0  0  0  0  0  0  0
   11.9701   -3.5167   26.6909 C   0  0  0  0  0  0  0  0  0  0  0  0
   13.3924   -3.0701   26.5238 C   0  0  0  0  0  0  0  0  0  0  0  0
   13.7397   -2.0460   25.4844 C   0  0  0  0  0  0  0  0  0  0  0  0
   12.6648   -1.4684   24.6120 C   0  0  0  0  0  0  0  0  0  0  0  0
   13.0121   -0.4443   23.5726 Cl  0  0  0  0  0  0  0  0  0  0  0  0
  1  2  2  0  0  0
  2  3  1  0  0  0
  3  4  1  0  0  0
  4  5  1  0  0  0
  5  6  1  0  0  0
  6 22  1  0  0  0
 22 23  2  0  0  0
 23 24  1  0  0  0
 24 25  2  0  0  0
 25 26  1  0  0  0
 26 27  2  0  0  0
 27 28  1  0  0  0
  6  7  1  0  0  0
  4  8  1  0  0  0
  8  9  2  0  0  0
  8 10  1  0  0  0
 10 12  1  0  0  0
 12 13  2  0  0  0
 13 14  1  0  0  0
 14 15  2  0  0  0
 15 16  1  0  0  0
 16 17  2  0  0  0
 17 18  1  0  0  0
 18 19  2  0  0  0
 19 20  1  0  0  0
 20 21  2  0  0  0
 10  2  1  0  0  0
 21 12  1  0  0  0
  7  4  1  0  0  0
 21 16  1  0  0  0
 27 22  1  0  0  0
  3 11  1  0  0  0
M  END
> <minimizedAffinity>
-7.05592

> <CNNscore>
0.7568944693

> <CNNaffinity>
6.3896899223

> <CNN_VS>
4.8363208771

> <CNNaffinity_variance>
0.4197756350

$$$$



 28 32  0  0  0  0  0  0  0  0999 V2000
    6.4972   -0.0452   18.9363 O   0  0  0  0  0  0  0  0  0  0  0  0
    7.0564   -0.0269   20.3281 C   0  0  0  0  0  0  0  0  0  0  0  0
    8.2601   -0.7847   20.8047 N   0  0  0  0  0  0  0  0  0  0  0  0
    8.4577   -0.4738   22.2587 C   0  0  0  0  0  0  0  0  0  0  0  0
    9.6133   -1.4090   22.0595 C   0  0  0  0  0  0  0  0  0  0  0  0
    9.9964   -1.2424   23.5002 C   0  0  0  0  0  0  0  0  0  0  0  0
    8.8408   -0.3071   23.6993 C   0  0  0  0  0  0  0  0  0  0  0  0
    7.3762    0.4761   22.6808 C   0  0  0  0  0  0  0  0  0  0  0  0
    7.1929    1.0491   24.0548 O   0  0  0  0  0  0  0  0  0  0  0  0
    6.5101    0.7522   21.4876 N   0  0  0  0  0  0  0  0  0  0  0  0
    8.8217   -1.3813   20.2589 H   0  0  0  0  0  0  0  0  0  0  0  0
    5.3087    1.6499   21.4589 C   0  0  0  0  0  0  0  0  0  0  0  0
    5.2249    2.7588   20.4523 C   0  0  0  0  0  0  0  0  0  0  0  0
    4.0235    3.6565   20.4236 N   0  0  0  0  0  0  0  0  0  0  0  0
    2.9060    3.4453   21.4016 C   0  0  0  0  0  0  0  0  0  0  0  0
    2.9898    2.3365   22.4083 C   0  0  0  0  0  0  0  0  0  0  0  0
    1.8723    2.1253   23.3863 C   0  0  0  0  0  0  0  0  0  0  0  0
    1.9561    1.0165   24.3930 C   0  0  0  0  0  0  0  0  0  0  0  0
    3.1575    0.1188   24.4216 C   0  0  0  0  0  0  0  0  0  0  0  0
    4.2750    0.3299   23.4436 C   0  0  0  0  0  0  0  0  0  0  0  0
    4.1912    1.4387   22.4370 C   0  0  0  0  0  0  0  0  0  0  0  0
   11.0846   -1.7860   24.3780 C   0  0  0  0  0  0  0  0  0  0  0  0
   12.5062   -1.3595   24.1615 C   0  0  0  0  0  0  0  0  0  0  0  0
   13.5943   -1.9032   25.0393 C   0  0  0  0  0  0  0  0  0  0  0  0
   13.2606   -2.8733   26.1337 C   0  0  0  0  0  0  0  0  0  0  0  0
   11.8389   -3.2997   26.3502 C   0  0  0  0  0  0  0  0  0  0  0  0
   10.7509   -2.7561   25.4724 C   0  0  0  0  0  0  0  0  0  0  0  0
    9.3292   -3.1825   25.6889 Cl  0  0  0  0  0  0  0  0  0  0  0  0
  1  2  2  0  0  0
  2  3  1  0  0  0
  3  4  1  0  0  0
  4  5  1  0  0  0
  5  6  1  0  0  0
  6 22  1  0  0  0
 22 23  2  0  0  0
 23 24  1  0  0  0
 24 25  2  0  0  0
 25 26  1  0  0  0
 26 27  2  0  0  0
 27 28  1  0  0  0
  6  7  1  0  0  0
  4  8  1  0  0  0
  8  9  2  0  0  0
  8 10  1  0  0  0
 10 12  1  0  0  0
 12 13  2  0  0  0
 13 14  1  0  0  0
 14 15  2  0  0  0
 15 16  1  0  0  0
 16 17  2  0  0  0
 17 18  1  0  0  0
 18 19  2  0  0  0
 19 20  1  0  0  0
 20 21  2  0  0  0
 10  2  1  0  0  0
 21 12  1  0  0  0
  7  4  1  0  0  0
 21 16  1  0  0  0
 27 22  1  0  0  0
  3 11  1  0  0  0
M  END
> <minimizedAffinity>
-6.58538

> <CNNscore>
0.7008121610

> <CNNaffinity>
6.3575315475

> <CNN_VS>
4.4554352760

> <CNNaffinity_variance>
0.5649591088

$$$$



 28 32  0  0  0  0  0  0  0  0999 V2000
    6.9764   -0.0327   18.6051 O   0  0  0  0  0  0  0  0  0  0  0  0
    7.3354   -0.0811   20.0607 C   0  0  0  0  0  0  0  0  0  0  0  0
    8.5190   -0.7861   20.6539 N   0  0  0  0  0  0  0  0  0  0  0  0
    8.4890   -0.5736   22.1385 C   0  0  0  0  0  0  0  0  0  0  0  0
    9.7326   -1.4072   22.0458 C   0  0  0  0  0  0  0  0  0  0  0  0
    9.8990   -1.3241   23.5343 C   0  0  0  0  0  0  0  0  0  0  0  0
    8.6555   -0.4905   23.6268 C   0  0  0  0  0  0  0  0  0  0  0  0
    7.2867    0.2627   22.4627 C   0  0  0  0  0  0  0  0  0  0  0  0
    6.8705    0.7151   23.8310 O   0  0  0  0  0  0  0  0  0  0  0  0
    6.5737    0.5671   21.1786 N   0  0  0  0  0  0  0  0  0  0  0  0
    9.1967   -1.2983   20.1562 H   0  0  0  0  0  0  0  0  0  0  0  0
    5.3194    1.3774   21.0373 C   0  0  0  0  0  0  0  0  0  0  0  0
    4.0537    0.7244   20.5667 C   0  0  0  0  0  0  0  0  0  0  0  0
    2.7993    1.5347   20.4253 N   0  0  0  0  0  0  0  0  0  0  0  0
    2.8107    2.9981   20.7545 C   0  0  0  0  0  0  0  0  0  0  0  0
    4.0765    3.6512   21.2251 C   0  0  0  0  0  0  0  0  0  0  0  0
    4.0878    5.1145   21.5543 C   0  0  0  0  0  0  0  0  0  0  0  0
    5.3535    5.7676   22.0249 C   0  0  0  0  0  0  0  0  0  0  0  0
    6.6079    4.9572   22.1663 C   0  0  0  0  0  0  0  0  0  0  0  0
    6.5965    3.4939   21.8371 C   0  0  0  0  0  0  0  0  0  0  0  0
    5.3308    2.8409   21.3665 C   0  0  0  0  0  0  0  0  0  0  0  0
   10.8962   -1.8548   24.5212 C   0  0  0  0  0  0  0  0  0  0  0  0
   12.1837   -1.1215   24.7548 C   0  0  0  0  0  0  0  0  0  0  0  0
   13.1808   -1.6523   25.7417 C   0  0  0  0  0  0  0  0  0  0  0  0
   12.8904   -2.9165   26.4950 C   0  0  0  0  0  0  0  0  0  0  0  0
   11.6029   -3.6499   26.2614 C   0  0  0  0  0  0  0  0  0  0  0  0
   10.6059   -3.1190   25.2745 C   0  0  0  0  0  0  0  0  0  0  0  0
    9.3184   -3.8524   25.0409 Cl  0  0  0  0  0  0  0  0  0  0  0  0
  1  2  2  0  0  0
  2  3  1  0  0  0
  3  4  1  0  0  0
  4  5  1  0  0  0
  5  6  1  0  0  0
  6 22  1  0  0  0
 22 23  2  0  0  0
 23 24  1  0  0  0
 24 25  2  0  0  0
 25 26  1  0  0  0
 26 27  2  0  0  0
 27 28  1  0  0  0
  6  7  1  0  0  0
  4  8  1  0  0  0
  8  9  2  0  0  0
  8 10  1  0  0  0
 10 12  1  0  0  0
 12 13  2  0  0  0
 13 14  1  0  0  0
 14 15  2  0  0  0
 15 16  1  0  0  0
 16 17  2  0  0  0
 17 18  1  0  0  0
 18 19  2  0  0  0
 19 20  1  0  0  0
 20 21  2  0  0  0
 10  2  1  0  0  0
 21 12  1  0  0  0
  7  4  1  0  0  0
 21 16  1  0  0  0
 27 22  1  0  0  0
  3 11  1  0  0  0
M  END
> <minimizedAffinity>
-8.59853

> <CNNscore>
0.6966967583

> <CNNaffinity>
6.1453523636

> <CNN_VS>
4.2814469337

> <CNNaffinity_variance>
0.3002800345

$$$$



 28 32  0  0  0  0  0  0  0  0999 V2000
    4.8472   -3.2327   21.4753 O   0  0  0  0  0  0  0  0  0  0  0  0
    5.9251   -2.4992   22.2170 C   0  0  0  0  0  0  0  0  0  0  0  0
    7.1740   -3.1058   22.7849 N   0  0  0  0  0  0  0  0  0  0  0  0
    7.9641   -2.0119   23.4400 C   0  0  0  0  0  0  0  0  0  0  0  0
    8.8839   -3.1640   23.7170 C   0  0  0  0  0  0  0  0  0  0  0  0
    9.8295   -2.2388   24.4241 C   0  0  0  0  0  0  0  0  0  0  0  0
    8.9098   -1.0868   24.1470 C   0  0  0  0  0  0  0  0  0  0  0  0
    7.2036   -0.7293   23.2769 C   0  0  0  0  0  0  0  0  0  0  0  0
    7.6287    0.6179   23.7811 O   0  0  0  0  0  0  0  0  0  0  0  0
    5.9434   -1.0305   22.5211 N   0  0  0  0  0  0  0  0  0  0  0  0
    7.4301   -4.0552   22.7363 H   0  0  0  0  0  0  0  0  0  0  0  0
    4.8871   -0.0373   22.1368 C   0  0  0  0  0  0  0  0  0  0  0  0
    3.9568    0.5092   23.1788 C   0  0  0  0  0  0  0  0  0  0  0  0
    2.9005    1.5024   22.7945 N   0  0  0  0  0  0  0  0  0  0  0  0
    2.7743    1.9490   21.3682 C   0  0  0  0  0  0  0  0  0  0  0  0
    3.7046    1.4025   20.3260 C   0  0  0  0  0  0  0  0  0  0  0  0
    3.5784    1.8491   18.8996 C   0  0  0  0  0  0  0  0  0  0  0  0
    4.5087    1.3026   17.8576 C   0  0  0  0  0  0  0  0  0  0  0  0
    5.5651    0.3095   18.2419 C   0  0  0  0  0  0  0  0  0  0  0  0
    5.6912   -0.1372   19.6682 C   0  0  0  0  0  0  0  0  0  0  0  0
    4.7610    0.4093   20.7103 C   0  0  0  0  0  0  0  0  0  0  0  0
   11.1486   -2.3994   25.1200 C   0  0  0  0  0  0  0  0  0  0  0  0
   11.3316   -3.4844   26.1395 C   0  0  0  0  0  0  0  0  0  0  0  0
   12.6507   -3.6449   26.8353 C   0  0  0  0  0  0  0  0  0  0  0  0
   13.7868   -2.7205   26.5116 C   0  0  0  0  0  0  0  0  0  0  0  0
   13.6038   -1.6355   25.4921 C   0  0  0  0  0  0  0  0  0  0  0  0
   12.2847   -1.4750   24.7963 C   0  0  0  0  0  0  0  0  0  0  0  0
   12.1017   -0.3901   23.7768 Cl  0  0  0  0  0  0  0  0  0  0  0  0
  1  2  2  0  0  0
  2  3  1  0  0  0
  3  4  1  0  0  0
  4  5  1  0  0  0
  5  6  1  0  0  0
  6 22  1  0  0  0
 22 23  2  0  0  0
 23 24  1  0  0  0
 24 25  2  0  0  0
 25 26  1  0  0  0
 26 27  2  0  0  0
 27 28  1  0  0  0
  6  7  1  0  0  0
  4  8  1  0  0  0
  8  9  2  0  0  0
  8 10  1  0  0  0
 10 12  1  0  0  0
 12 13  2  0  0  0
 13 14  1  0  0  0
 14 15  2  0  0  0
 15 16  1  0  0  0
 16 17  2  0  0  0
 17 18  1  0  0  0
 18 19  2  0  0  0
 19 20  1  0  0  0
 20 21  2  0  0  0
 10  2  1  0  0  0
 21 12  1  0  0  0
  7  4  1  0  0  0
 21 16  1  0  0  0
 27 22  1  0  0  0
  3 11  1  0  0  0
M  END
> <minimizedAffinity>
-8.32035

> <CNNscore>
0.6852640510

> <CNNaffinity>
6.2182302475

> <CNN_VS>
4.2611298561

> <CNNaffinity_variance>
0.4011417031

$$$$



 28 32  0  0  0  0  0  0  0  0999 V2000
    4.0686   -0.0978   23.4446 O   0  0  0  0  0  0  0  0  0  0  0  0
    5.5236   -0.3707   23.2025 C   0  0  0  0  0  0  0  0  0  0  0  0
    6.5198   -0.8176   24.2310 N   0  0  0  0  0  0  0  0  0  0  0  0
    7.8497   -0.9677   23.5536 C   0  0  0  0  0  0  0  0  0  0  0  0
    8.2495   -1.3602   24.9451 C   0  0  0  0  0  0  0  0  0  0  0  0
    9.6593   -1.5743   24.4796 C   0  0  0  0  0  0  0  0  0  0  0  0
    9.2595   -1.1818   23.0882 C   0  0  0  0  0  0  0  0  0  0  0  0
    7.6754   -0.6136   22.1065 C   0  0  0  0  0  0  0  0  0  0  0  0
    8.7500   -0.6262   21.0601 O   0  0  0  0  0  0  0  0  0  0  0  0
    6.2377   -0.2446   21.8895 N   0  0  0  0  0  0  0  0  0  0  0  0
    6.3336   -0.9833   25.1835 H   0  0  0  0  0  0  0  0  0  0  0  0
    5.6223    0.1765   20.5880 C   0  0  0  0  0  0  0  0  0  0  0  0
    5.9323   -0.5820   19.3316 C   0  0  0  0  0  0  0  0  0  0  0  0
    5.3169   -0.1609   18.0301 N   0  0  0  0  0  0  0  0  0  0  0  0
    4.3915    1.0187   17.9850 C   0  0  0  0  0  0  0  0  0  0  0  0
    4.0815    1.7773   19.2414 C   0  0  0  0  0  0  0  0  0  0  0  0
    3.1561    2.9569   19.1963 C   0  0  0  0  0  0  0  0  0  0  0  0
    2.8461    3.7154   20.4526 C   0  0  0  0  0  0  0  0  0  0  0  0
    3.4615    3.2943   21.7541 C   0  0  0  0  0  0  0  0  0  0  0  0
    4.3869    2.1147   21.7993 C   0  0  0  0  0  0  0  0  0  0  0  0
    4.6969    1.3562   20.5429 C   0  0  0  0  0  0  0  0  0  0  0  0
   10.9388   -2.0032   25.1344 C   0  0  0  0  0  0  0  0  0  0  0  0
   10.9799   -3.2635   25.9468 C   0  0  0  0  0  0  0  0  0  0  0  0
   12.2595   -3.6923   26.6016 C   0  0  0  0  0  0  0  0  0  0  0  0
   13.4980   -2.8608   26.4441 C   0  0  0  0  0  0  0  0  0  0  0  0
   13.4569   -1.6006   25.6317 C   0  0  0  0  0  0  0  0  0  0  0  0
   12.1773   -1.1717   24.9769 C   0  0  0  0  0  0  0  0  0  0  0  0
   12.1362    0.0886   24.1645 Cl  0  0  0  0  0  0  0  0  0  0  0  0
  1  2  2  0  0  0
  2  3  1  0  0  0
  3  4  1  0  0  0
  4  5  1  0  0  0
  5  6  1  0  0  0
  6 22  1  0  0  0
 22 23  2  0  0  0
 23 24  1  0  0  0
 24 25  2  0  0  0
 25 26  1  0  0  0
 26 27  2  0  0  0
 27 28  1  0  0  0
  6  7  1  0  0  0
  4  8  1  0  0  0
  8  9  2  0  0  0
  8 10  1  0  0  0
 10 12  1  0  0  0
 12 13  2  0  0  0
 13 14  1  0  0  0
 14 15  2  0  0  0
 15 16  1  0  0  0
 16 17  2  0  0  0
 17 18  1  0  0  0
 18 19  2  0  0  0
 19 20  1  0  0  0
 20 21  2  0  0  0
 10  2  1  0  0  0
 21 12  1  0  0  0
  7  4  1  0  0  0
 21 16  1  0  0  0
 27 22  1  0  0  0
  3 11  1  0  0  0
M  END
> <minimizedAffinity>
-8.26811

> <CNNscore>
0.6729387641

> <CNNaffinity>
6.1634411812

> <CNN_VS>
4.1476182938

> <CNNaffinity_variance>
0.3002660275

$$$$



 28 32  0  0  0  0  0  0  0  0999 V2000
    4.8992   -3.2268   21.4348 O   0  0  0  0  0  0  0  0  0  0  0  0
    5.9810   -2.4873   22.1648 C   0  0  0  0  0  0  0  0  0  0  0  0
    7.2161   -3.0946   22.7613 N   0  0  0  0  0  0  0  0  0  0  0  0
    8.0161   -1.9934   23.3916 C   0  0  0  0  0  0  0  0  0  0  0  0
    8.9168   -3.1497   23.7101 C   0  0  0  0  0  0  0  0  0  0  0  0
    9.8694   -2.2178   24.3988 C   0  0  0  0  0  0  0  0  0  0  0  0
    8.9687   -1.0615   24.0802 C   0  0  0  0  0  0  0  0  0  0  0  0
    7.2754   -0.7055   23.1846 C   0  0  0  0  0  0  0  0  0  0  0  0
    7.7153    0.6497   23.6535 O   0  0  0  0  0  0  0  0  0  0  0  0
    6.0177   -1.0108   22.4264 N   0  0  0  0  0  0  0  0  0  0  0  0
    7.4590   -4.0485   22.7424 H   0  0  0  0  0  0  0  0  0  0  0  0
    4.9789   -0.0144   22.0040 C   0  0  0  0  0  0  0  0  0  0  0  0
    4.0578    0.5867   23.0238 C   0  0  0  0  0  0  0  0  0  0  0  0
    3.0191    1.5831   22.6014 N   0  0  0  0  0  0  0  0  0  0  0  0
    2.9015    1.9782   21.1592 C   0  0  0  0  0  0  0  0  0  0  0  0
    3.8227    1.3770   20.1393 C   0  0  0  0  0  0  0  0  0  0  0  0
    3.7051    1.7722   18.6971 C   0  0  0  0  0  0  0  0  0  0  0  0
    4.6262    1.1710   17.6773 C   0  0  0  0  0  0  0  0  0  0  0  0
    5.6649    0.1746   18.0997 C   0  0  0  0  0  0  0  0  0  0  0  0
    5.7825   -0.2205   19.5419 C   0  0  0  0  0  0  0  0  0  0  0  0
    4.8614    0.3807   20.5617 C   0  0  0  0  0  0  0  0  0  0  0  0
   11.1800   -2.3767   25.1110 C   0  0  0  0  0  0  0  0  0  0  0  0
   12.3493   -1.5175   24.7308 C   0  0  0  0  0  0  0  0  0  0  0  0
   13.6598   -1.6764   25.4430 C   0  0  0  0  0  0  0  0  0  0  0  0
   13.8010   -2.6946   26.5355 C   0  0  0  0  0  0  0  0  0  0  0  0
   12.6317   -3.5538   26.9157 C   0  0  0  0  0  0  0  0  0  0  0  0
   11.3212   -3.3948   26.2034 C   0  0  0  0  0  0  0  0  0  0  0  0
   10.1520   -4.2540   26.5836 Cl  0  0  0  0  0  0  0  0  0  0  0  0
  1  2  2  0  0  0
  2  3  1  0  0  0
  3  4  1  0  0  0
  4  5  1  0  0  0
  5  6  1  0  0  0
  6 22  1  0  0  0
 22 23  2  0  0  0
 23 24  1  0  0  0
 24 25  2  0  0  0
 25 26  1  0  0  0
 26 27  2  0  0  0
 27 28  1  0  0  0
  6  7  1  0  0  0
  4  8  1  0  0  0
  8  9  2  0  0  0
  8 10  1  0  0  0
 10 12  1  0  0  0
 12 13  2  0  0  0
 13 14  1  0  0  0
 14 15  2  0  0  0
 15 16  1  0  0  0
 16 17  2  0  0  0
 17 18  1  0  0  0
 18 19  2  0  0  0
 19 20  1  0  0  0
 20 21  2  0  0  0
 10  2  1  0  0  0
 21 12  1  0  0  0
  7  4  1  0  0  0
 21 16  1  0  0  0
 27 22  1  0  0  0
  3 11  1  0  0  0
M  END
> <minimizedAffinity>
-8.40605

> <CNNscore>
0.6441438794

> <CNNaffinity>
6.1189417839

> <CNN_VS>
3.9414789677

> <CNNaffinity_variance>
0.3710899055

$$$$



 28 32  0  0  0  0  0  0  0  0999 V2000
    4.6806   -1.3344   20.3255 O   0  0  0  0  0  0  0  0  0  0  0  0
    5.5754   -1.0345   21.4914 C   0  0  0  0  0  0  0  0  0  0  0  0
    6.9395   -1.6120   21.7273 N   0  0  0  0  0  0  0  0  0  0  0  0
    7.4704   -1.0388   23.0077 C   0  0  0  0  0  0  0  0  0  0  0  0
    8.6336   -1.9122   22.6415 C   0  0  0  0  0  0  0  0  0  0  0  0
    9.3554   -1.4702   23.8800 C   0  0  0  0  0  0  0  0  0  0  0  0
    8.1921   -0.5968   24.2461 C   0  0  0  0  0  0  0  0  0  0  0  0
    6.4344   -0.1071   23.5632 C   0  0  0  0  0  0  0  0  0  0  0  0
    6.5494    0.6833   24.8329 O   0  0  0  0  0  0  0  0  0  0  0  0
    5.2632   -0.1044   22.6260 N   0  0  0  0  0  0  0  0  0  0  0  0
    7.4047   -2.2545   21.1441 H   0  0  0  0  0  0  0  0  0  0  0  0
    4.0014    0.6891   22.7940 C   0  0  0  0  0  0  0  0  0  0  0  0
    3.2678    0.6633   24.1020 C   0  0  0  0  0  0  0  0  0  0  0  0
    2.0059    1.4568   24.2700 N   0  0  0  0  0  0  0  0  0  0  0  0
    1.4778    2.2761   23.1299 C   0  0  0  0  0  0  0  0  0  0  0  0
    2.2115    2.3019   21.8218 C   0  0  0  0  0  0  0  0  0  0  0  0
    1.6833    3.1212   20.6817 C   0  0  0  0  0  0  0  0  0  0  0  0
    2.4170    3.1469   19.3737 C   0  0  0  0  0  0  0  0  0  0  0  0
    3.6788    2.3535   19.2057 C   0  0  0  0  0  0  0  0  0  0  0  0
    4.2069    1.5342   20.3458 C   0  0  0  0  0  0  0  0  0  0  0  0
    3.4733    1.5084   21.6538 C   0  0  0  0  0  0  0  0  0  0  0  0
   10.6883   -1.7753   24.4966 C   0  0  0  0  0  0  0  0  0  0  0  0
   10.7593   -2.4742   25.8219 C   0  0  0  0  0  0  0  0  0  0  0  0
   12.0922   -2.7793   26.4385 C   0  0  0  0  0  0  0  0  0  0  0  0
   13.3542   -2.3853   25.7297 C   0  0  0  0  0  0  0  0  0  0  0  0
   13.2832   -1.6864   24.4045 C   0  0  0  0  0  0  0  0  0  0  0  0
   11.9503   -1.3813   23.7879 C   0  0  0  0  0  0  0  0  0  0  0  0
   11.8793   -0.6824   22.4626 Cl  0  0  0  0  0  0  0  0  0  0  0  0
  1  2  2  0  0  0
  2  3  1  0  0  0
  3  4  1  0  0  0
  4  5  1  0  0  0
  5  6  1  0  0  0
  6 22  1  0  0  0
 22 23  2  0  0  0
 23 24  1  0  0  0
 24 25  2  0  0  0
 25 26  1  0  0  0
 26 27  2  0  0  0
 27 28  1  0  0  0
  6  7  1  0  0  0
  4  8  1  0  0  0
  8  9  2  0  0  0
  8 10  1  0  0  0
 10 12  1  0  0  0
 12 13  2  0  0  0
 13 14  1  0  0  0
 14 15  2  0  0  0
 15 16  1  0  0  0
 16 17  2  0  0  0
 17 18  1  0  0  0
 18 19  2  0  0  0
 19 20  1  0  0  0
 20 21  2  0  0  0
 10  2  1  0  0  0
 21 12  1  0  0  0
  7  4  1  0  0  0
 21 16  1  0  0  0
 27 22  1  0  0  0
  3 11  1  0  0  0
M  END
> <minimizedAffinity>
-6.82511

> <CNNscore>
0.6380102634

> <CNNaffinity>
6.1041913033

> <CNN_VS>
3.8945367336

> <CNNaffinity_variance>
0.5141842365

$$$$
