


 39 44  0  0  0  0  0  0  0  0999 V2000
    7.6860   -3.5541   23.8175 C   0  0  0  0  0  0  0  0  0  0  0  0
    7.8600   -2.2847   23.0374 C   0  0  0  0  0  0  0  0  0  0  0  0
    6.7142   -2.0391   22.1010 C   0  0  0  0  0  0  0  0  0  0  0  0
    6.9788   -0.7556   21.3713 N   0  0  0  0  0  0  0  0  0  0  0  0
    8.2882   -0.2079   21.8567 C   0  0  0  0  0  0  0  0  0  0  0  0
    8.9388    1.0619   21.3936 O   0  0  0  0  0  0  0  0  0  0  0  0
    8.8328   -1.1529   22.8864 C   0  0  0  0  0  0  0  0  0  0  0  0
    9.7074    0.0380   22.6282 C   0  0  0  0  0  0  0  0  0  0  0  0
   10.9981    0.1968   23.3757 N   0  0  0  0  0  0  0  0  0  0  0  0
   11.4143   -0.8353   24.3814 C   0  0  0  0  0  0  0  0  0  0  0  0
   12.7051   -0.6765   25.1289 O   0  0  0  0  0  0  0  0  0  0  0  0
   10.5397   -2.0263   24.6396 C   0  0  0  0  0  0  0  0  0  0  0  0
   10.9559   -3.0585   25.6453 C   0  0  0  0  0  0  0  0  0  0  0  0
   10.0814   -4.2494   25.9035 C   0  0  0  0  0  0  0  0  0  0  0  0
    8.7906   -4.4082   25.1560 C   0  0  0  0  0  0  0  0  0  0  0  0
    8.3744   -3.3761   24.1504 C   0  0  0  0  0  0  0  0  0  0  0  0
    9.2490   -2.1852   23.8922 C   0  0  0  0  0  0  0  0  0  0  0  0
    6.0902   -0.1296   20.3376 C   0  0  0  0  0  0  0  0  0  0  0  0
    6.4598   -0.2049   18.8859 C   0  0  0  0  0  0  0  0  0  0  0  0
    5.5711    0.4210   17.8523 N   0  0  0  0  0  0  0  0  0  0  0  0
    4.3129    1.1223   18.2704 C   0  0  0  0  0  0  0  0  0  0  0  0
    3.9432    1.1976   19.7222 C   0  0  0  0  0  0  0  0  0  0  0  0
    2.6849    1.8990   20.1404 C   0  0  0  0  0  0  0  0  0  0  0  0
    2.3153    1.9742   21.5922 C   0  0  0  0  0  0  0  0  0  0  0  0
    3.2040    1.3483   22.6258 C   0  0  0  0  0  0  0  0  0  0  0  0
    4.4623    0.6470   22.2076 C   0  0  0  0  0  0  0  0  0  0  0  0
    4.8319    0.5717   20.7559 C   0  0  0  0  0  0  0  0  0  0  0  0
   11.8727    1.3879   23.1174 C   0  0  0  0  0  0  0  0  0  0  0  0
   11.2617    2.6869   22.6827 C   0  0  0  0  0  0  0  0  0  0  0  0
   11.8370    3.4329   21.5155 O   0  0  0  0  0  0  0  0  0  0  0  0
   10.0752    3.2399   23.4151 N   0  0  0  0  0  0  0  0  0  0  0  0
    9.6976    2.7502   24.1811 H   0  0  0  0  0  0  0  0  0  0  0  0
    9.4641    4.5390   22.9803 C   0  0  0  0  0  0  0  0  0  0  0  0
   10.3353    5.7383   22.7517 C   0  0  0  0  0  0  0  0  0  0  0  0
   11.6417    5.7515   22.0146 C   0  0  0  0  0  0  0  0  0  0  0  0
   12.1670    7.1565   22.0274 C   0  0  0  0  0  0  0  0  0  0  0  0
   11.1853    8.0116   22.7724 N   0  0  0  0  0  0  0  0  0  0  0  0
   10.0533    7.1351   23.2201 N   0  0  0  0  0  0  0  0  0  0  0  0
    8.8504    7.5778   23.9993 C   0  0  0  0  0  0  0  0  0  0  0  0
  2  1  1  0  0  0
  2  3  1  0  0  0
  3  4  1  0  0  0
  4 18  1  0  0  0
 18 19  2  0  0  0
 19 20  1  0  0  0
 20 21  2  0  0  0
 21 22  1  0  0  0
 22 23  2  0  0  0
 23 24  1  0  0  0
 24 25  2  0  0  0
 25 26  1  0  0  0
 26 27  2  0  0  0
  4  5  1  0  0  0
  5  6  2  0  0  0
  5  7  1  0  0  0
  7  8  1  0  0  0
  8  9  1  0  0  0
  9 28  1  0  0  0
 28 29  1  0  0  0
 29 30  2  0  0  0
 29 31  1  0  0  0
 31 33  1  0  0  0
 33 34  1  0  0  0
 34 35  2  0  0  0
 35 36  1  0  0  0
 36 37  2  0  0  0
 37 38  1  0  0  0
 38 39  1  0  0  0
  9 10  1  0  0  0
 10 11  2  0  0  0
 10 12  1  0  0  0
 12 13  2  0  0  0
 13 14  1  0  0  0
 14 15  2  0  0  0
 15 16  1  0  0  0
 16 17  2  0  0  0
  7  2  1  0  0  0
 38 34  1  0  0  0
 17 12  1  0  0  0
 27 18  1  0  0  0
 17  7  1  0  0  0
 27 22  1  0  0  0
 31 32  1  0  0  0
M  END
> <minimizedAffinity>
-9.60755

> <CNNscore>
0.5440237522

> <CNNaffinity>
6.9204354286

> <CNN_VS>
3.7648811340

> <CNNaffinity_variance>
0.0803094283

$$$$



 39 44  0  0  0  0  0  0  0  0999 V2000
    7.0823   -0.4416   19.5524 C   0  0  0  0  0  0  0  0  0  0  0  0
    7.6222    0.0780   20.8519 C   0  0  0  0  0  0  0  0  0  0  0  0
    8.8387   -0.6781   21.2974 C   0  0  0  0  0  0  0  0  0  0  0  0
    9.3010   -0.0882   22.5967 N   0  0  0  0  0  0  0  0  0  0  0  0
    8.3702    1.0324   22.9543 C   0  0  0  0  0  0  0  0  0  0  0  0
    8.4611    1.8983   24.1758 O   0  0  0  0  0  0  0  0  0  0  0  0
    7.3326    1.1352   21.8759 C   0  0  0  0  0  0  0  0  0  0  0  0
    7.1685    2.1393   22.9780 C   0  0  0  0  0  0  0  0  0  0  0  0
    6.0396    3.1259   22.9318 N   0  0  0  0  0  0  0  0  0  0  0  0
    5.0748    3.1084   21.7834 C   0  0  0  0  0  0  0  0  0  0  0  0
    3.9459    4.0950   21.7372 O   0  0  0  0  0  0  0  0  0  0  0  0
    5.2389    2.1042   20.6812 C   0  0  0  0  0  0  0  0  0  0  0  0
    4.2741    2.0867   19.5329 C   0  0  0  0  0  0  0  0  0  0  0  0
    4.4382    1.0826   18.4307 C   0  0  0  0  0  0  0  0  0  0  0  0
    5.5671    0.0960   18.4770 C   0  0  0  0  0  0  0  0  0  0  0  0
    6.5319    0.1135   19.6253 C   0  0  0  0  0  0  0  0  0  0  0  0
    6.3678    1.1176   20.7275 C   0  0  0  0  0  0  0  0  0  0  0  0
   10.4860   -0.5397   23.3979 C   0  0  0  0  0  0  0  0  0  0  0  0
   11.8046    0.1589   23.2454 C   0  0  0  0  0  0  0  0  0  0  0  0
   12.9896   -0.2926   24.0465 N   0  0  0  0  0  0  0  0  0  0  0  0
   12.8560   -1.4426   25.0002 C   0  0  0  0  0  0  0  0  0  0  0  0
   11.5374   -2.1412   25.1527 C   0  0  0  0  0  0  0  0  0  0  0  0
   11.4038   -3.2913   26.1065 C   0  0  0  0  0  0  0  0  0  0  0  0
   10.0852   -3.9898   26.2589 C   0  0  0  0  0  0  0  0  0  0  0  0
    8.9002   -3.5383   25.4578 C   0  0  0  0  0  0  0  0  0  0  0  0
    9.0338   -2.3883   24.5041 C   0  0  0  0  0  0  0  0  0  0  0  0
   10.3524   -1.6897   24.3516 C   0  0  0  0  0  0  0  0  0  0  0  0
    5.8756    4.1301   24.0340 C   0  0  0  0  0  0  0  0  0  0  0  0
    6.7054    5.3796   24.0399 C   0  0  0  0  0  0  0  0  0  0  0  0
    6.0579    6.7088   24.2926 O   0  0  0  0  0  0  0  0  0  0  0  0
    8.1828    5.2998   23.7931 N   0  0  0  0  0  0  0  0  0  0  0  0
    8.6078    4.4274   23.6273 H   0  0  0  0  0  0  0  0  0  0  0  0
    9.0128    6.5493   23.7990 C   0  0  0  0  0  0  0  0  0  0  0  0
   10.3163    6.5873   23.0579 C   0  0  0  0  0  0  0  0  0  0  0  0
   11.0512    7.8228   22.6295 C   0  0  0  0  0  0  0  0  0  0  0  0
   12.3030    7.3956   21.9219 C   0  0  0  0  0  0  0  0  0  0  0  0
   12.3416    5.8961   21.9130 N   0  0  0  0  0  0  0  0  0  0  0  0
   11.1138    5.3966   22.6151 N   0  0  0  0  0  0  0  0  0  0  0  0
   10.7478    3.9588   22.8357 C   0  0  0  0  0  0  0  0  0  0  0  0
  2  1  1  0  0  0
  2  3  1  0  0  0
  3  4  1  0  0  0
  4 18  1  0  0  0
 18 19  2  0  0  0
 19 20  1  0  0  0
 20 21  2  0  0  0
 21 22  1  0  0  0
 22 23  2  0  0  0
 23 24  1  0  0  0
 24 25  2  0  0  0
 25 26  1  0  0  0
 26 27  2  0  0  0
  4  5  1  0  0  0
  5  6  2  0  0  0
  5  7  1  0  0  0
  7  8  1  0  0  0
  8  9  1  0  0  0
  9 28  1  0  0  0
 28 29  1  0  0  0
 29 30  2  0  0  0
 29 31  1  0  0  0
 31 33  1  0  0  0
 33 34  1  0  0  0
 34 35  2  0  0  0
 35 36  1  0  0  0
 36 37  2  0  0  0
 37 38  1  0  0  0
 38 39  1  0  0  0
  9 10  1  0  0  0
 10 11  2  0  0  0
 10 12  1  0  0  0
 12 13  2  0  0  0
 13 14  1  0  0  0
 14 15  2  0  0  0
 15 16  1  0  0  0
 16 17  2  0  0  0
  7  2  1  0  0  0
 38 34  1  0  0  0
 17 12  1  0  0  0
 27 18  1  0  0  0
 17  7  1  0  0  0
 27 22  1  0  0  0
 31 32  1  0  0  0
M  END
> <minimizedAffinity>
-9.59795

> <CNNscore>
0.3642525077

> <CNNaffinity>
6.6746034622

> <CNN_VS>
2.4312410355

> <CNNaffinity_variance>
0.3343721032

$$$$



 39 44  0  0  0  0  0  0  0  0999 V2000
   10.6850   -3.8128   25.6987 C   0  0  0  0  0  0  0  0  0  0  0  0
    9.5040   -3.5023   24.8275 C   0  0  0  0  0  0  0  0  0  0  0  0
    8.4461   -4.5620   24.9166 C   0  0  0  0  0  0  0  0  0  0  0  0
    7.3143   -4.1638   24.0164 N   0  0  0  0  0  0  0  0  0  0  0  0
    7.6727   -2.8580   23.3709 C   0  0  0  0  0  0  0  0  0  0  0  0
    6.8264   -2.0951   22.3954 O   0  0  0  0  0  0  0  0  0  0  0  0
    9.0261   -2.4492   23.8722 C   0  0  0  0  0  0  0  0  0  0  0  0
    8.4183   -1.4826   22.8996 C   0  0  0  0  0  0  0  0  0  0  0  0
    9.1629   -0.2391   22.5134 N   0  0  0  0  0  0  0  0  0  0  0  0
   10.5154    0.0378   23.0999 C   0  0  0  0  0  0  0  0  0  0  0  0
   11.2601    1.2814   22.7137 O   0  0  0  0  0  0  0  0  0  0  0  0
   11.1233   -0.9288   24.0727 C   0  0  0  0  0  0  0  0  0  0  0  0
   12.4758   -0.6519   24.6592 C   0  0  0  0  0  0  0  0  0  0  0  0
   13.0836   -1.6185   25.6319 C   0  0  0  0  0  0  0  0  0  0  0  0
   12.3390   -2.8620   26.0180 C   0  0  0  0  0  0  0  0  0  0  0  0
   10.9865   -3.1389   25.4315 C   0  0  0  0  0  0  0  0  0  0  0  0
   10.3786   -2.1723   24.4588 C   0  0  0  0  0  0  0  0  0  0  0  0
    6.0465   -4.9357   23.7996 C   0  0  0  0  0  0  0  0  0  0  0  0
    5.8030   -5.6253   22.4901 C   0  0  0  0  0  0  0  0  0  0  0  0
    4.5353   -6.3972   22.2733 N   0  0  0  0  0  0  0  0  0  0  0  0
    3.5112   -6.4796   23.3662 C   0  0  0  0  0  0  0  0  0  0  0  0
    3.7548   -5.7899   24.6758 C   0  0  0  0  0  0  0  0  0  0  0  0
    2.7306   -5.8723   25.7687 C   0  0  0  0  0  0  0  0  0  0  0  0
    2.9743   -5.1826   27.0783 C   0  0  0  0  0  0  0  0  0  0  0  0
    4.2419   -4.4107   27.2950 C   0  0  0  0  0  0  0  0  0  0  0  0
    5.2661   -4.3284   26.2021 C   0  0  0  0  0  0  0  0  0  0  0  0
    5.0225   -5.0180   24.8926 C   0  0  0  0  0  0  0  0  0  0  0  0
    8.5550    0.7275   21.5406 C   0  0  0  0  0  0  0  0  0  0  0  0
    7.2695    0.3855   20.8475 C   0  0  0  0  0  0  0  0  0  0  0  0
    7.2895   -0.1101   19.4319 O   0  0  0  0  0  0  0  0  0  0  0  0
    5.9640    0.5391   21.5701 N   0  0  0  0  0  0  0  0  0  0  0  0
    5.9509    0.8644   22.4992 H   0  0  0  0  0  0  0  0  0  0  0  0
    4.6784    0.1970   20.8770 C   0  0  0  0  0  0  0  0  0  0  0  0
    3.7811    1.2907   20.3785 C   0  0  0  0  0  0  0  0  0  0  0  0
    2.8036    2.0740   21.2038 C   0  0  0  0  0  0  0  0  0  0  0  0
    2.1220    3.0606   20.3026 C   0  0  0  0  0  0  0  0  0  0  0  0
    2.6782    2.8870   18.9204 N   0  0  0  0  0  0  0  0  0  0  0  0
    3.7036    1.7932   18.9674 N   0  0  0  0  0  0  0  0  0  0  0  0
    4.5099    1.2902   17.8068 C   0  0  0  0  0  0  0  0  0  0  0  0
  2  1  1  0  0  0
  2  3  1  0  0  0
  3  4  1  0  0  0
  4 18  1  0  0  0
 18 19  2  0  0  0
 19 20  1  0  0  0
 20 21  2  0  0  0
 21 22  1  0  0  0
 22 23  2  0  0  0
 23 24  1  0  0  0
 24 25  2  0  0  0
 25 26  1  0  0  0
 26 27  2  0  0  0
  4  5  1  0  0  0
  5  6  2  0  0  0
  5  7  1  0  0  0
  7  8  1  0  0  0
  8  9  1  0  0  0
  9 28  1  0  0  0
 28 29  1  0  0  0
 29 30  2  0  0  0
 29 31  1  0  0  0
 31 33  1  0  0  0
 33 34  1  0  0  0
 34 35  2  0  0  0
 35 36  1  0  0  0
 36 37  2  0  0  0
 37 38  1  0  0  0
 38 39  1  0  0  0
  9 10  1  0  0  0
 10 11  2  0  0  0
 10 12  1  0  0  0
 12 13  2  0  0  0
 13 14  1  0  0  0
 14 15  2  0  0  0
 15 16  1  0  0  0
 16 17  2  0  0  0
  7  2  1  0  0  0
 38 34  1  0  0  0
 17 12  1  0  0  0
 27 18  1  0  0  0
 17  7  1  0  0  0
 27 22  1  0  0  0
 31 32  1  0  0  0
M  END
> <minimizedAffinity>
-9.47350

> <CNNscore>
0.3621052504

> <CNNaffinity>
6.6179819107

> <CNN_VS>
2.3964059353

> <CNNaffinity_variance>
0.0992785096

$$$$



 39 44  0  0  0  0  0  0  0  0999 V2000
   10.8840   -4.1478   26.0013 C   0  0  0  0  0  0  0  0  0  0  0  0
    9.7123   -3.7835   25.1384 C   0  0  0  0  0  0  0  0  0  0  0  0
    8.5548   -4.7160   25.3398 C   0  0  0  0  0  0  0  0  0  0  0  0
    7.4401   -4.2722   24.4396 N   0  0  0  0  0  0  0  0  0  0  0  0
    7.9087   -3.0654   23.6819 C   0  0  0  0  0  0  0  0  0  0  0  0
    7.1126   -2.2958   22.6699 O   0  0  0  0  0  0  0  0  0  0  0  0
    9.3130   -2.7634   24.1137 C   0  0  0  0  0  0  0  0  0  0  0  0
    8.7751   -1.8167   23.0821 C   0  0  0  0  0  0  0  0  0  0  0  0
    9.6300   -0.6921   22.5779 N   0  0  0  0  0  0  0  0  0  0  0  0
   11.0229   -0.5140   23.1053 C   0  0  0  0  0  0  0  0  0  0  0  0
   11.8778    0.6106   22.6011 O   0  0  0  0  0  0  0  0  0  0  0  0
   11.5608   -1.4607   24.1371 C   0  0  0  0  0  0  0  0  0  0  0  0
   12.9537   -1.2827   24.6645 C   0  0  0  0  0  0  0  0  0  0  0  0
   13.4916   -2.2294   25.6962 C   0  0  0  0  0  0  0  0  0  0  0  0
   12.6367   -3.3541   26.2004 C   0  0  0  0  0  0  0  0  0  0  0  0
   11.2439   -3.5321   25.6730 C   0  0  0  0  0  0  0  0  0  0  0  0
   10.7059   -2.5854   24.6413 C   0  0  0  0  0  0  0  0  0  0  0  0
    6.0932   -4.9212   24.3183 C   0  0  0  0  0  0  0  0  0  0  0  0
    5.7732   -5.7671   23.1217 C   0  0  0  0  0  0  0  0  0  0  0  0
    4.4264   -6.4161   23.0005 N   0  0  0  0  0  0  0  0  0  0  0  0
    3.3995   -6.2192   24.0759 C   0  0  0  0  0  0  0  0  0  0  0  0
    3.7194   -5.3732   25.2726 C   0  0  0  0  0  0  0  0  0  0  0  0
    2.6924   -5.1763   26.3481 C   0  0  0  0  0  0  0  0  0  0  0  0
    3.0125   -4.3303   27.5448 C   0  0  0  0  0  0  0  0  0  0  0  0
    4.3593   -3.6814   27.6659 C   0  0  0  0  0  0  0  0  0  0  0  0
    5.3862   -3.8783   26.5905 C   0  0  0  0  0  0  0  0  0  0  0  0
    5.0663   -4.7242   25.3939 C   0  0  0  0  0  0  0  0  0  0  0  0
    9.0920    0.2546   21.5461 C   0  0  0  0  0  0  0  0  0  0  0  0
    7.6125    0.3584   21.3224 C   0  0  0  0  0  0  0  0  0  0  0  0
    6.8919    1.6326   21.6497 O   0  0  0  0  0  0  0  0  0  0  0  0
    6.8534   -0.8122   20.7713 N   0  0  0  0  0  0  0  0  0  0  0  0
    7.3264   -1.6485   20.5565 H   0  0  0  0  0  0  0  0  0  0  0  0
    5.3738   -0.7085   20.5475 C   0  0  0  0  0  0  0  0  0  0  0  0
    4.8266    0.3384   19.6232 C   0  0  0  0  0  0  0  0  0  0  0  0
    5.2608    0.5789   18.2077 C   0  0  0  0  0  0  0  0  0  0  0  0
    4.4517    1.7178   17.6617 C   0  0  0  0  0  0  0  0  0  0  0  0
    3.5174    2.1813   18.7399 N   0  0  0  0  0  0  0  0  0  0  0  0
    3.7491    1.3288   19.9521 N   0  0  0  0  0  0  0  0  0  0  0  0
    3.0297    1.4461   21.2630 C   0  0  0  0  0  0  0  0  0  0  0  0
  2  1  1  0  0  0
  2  3  1  0  0  0
  3  4  1  0  0  0
  4 18  1  0  0  0
 18 19  2  0  0  0
 19 20  1  0  0  0
 20 21  2  0  0  0
 21 22  1  0  0  0
 22 23  2  0  0  0
 23 24  1  0  0  0
 24 25  2  0  0  0
 25 26  1  0  0  0
 26 27  2  0  0  0
  4  5  1  0  0  0
  5  6  2  0  0  0
  5  7  1  0  0  0
  7  8  1  0  0  0
  8  9  1  0  0  0
  9 28  1  0  0  0
 28 29  1  0  0  0
 29 30  2  0  0  0
 29 31  1  0  0  0
 31 33  1  0  0  0
 33 34  1  0  0  0
 34 35  2  0  0  0
 35 36  1  0  0  0
 36 37  2  0  0  0
 37 38  1  0  0  0
 38 39  1  0  0  0
  9 10  1  0  0  0
 10 11  2  0  0  0
 10 12  1  0  0  0
 12 13  2  0  0  0
 13 14  1  0  0  0
 14 15  2  0  0  0
 15 16  1  0  0  0
 16 17  2  0  0  0
  7  2  1  0  0  0
 38 34  1  0  0  0
 17 12  1  0  0  0
 27 18  1  0  0  0
 17  7  1  0  0  0
 27 22  1  0  0  0
 31 32  1  0  0  0
M  END
> <minimizedAffinity>
-8.84390

> <CNNscore>
0.3599568009

> <CNNaffinity>
6.6071014404

> <CNN_VS>
2.3782711029

> <CNNaffinity_variance>
0.0722555071

$$$$



 39 44  0  0  0  0  0  0  0  0999 V2000
    7.7099   -3.5372   23.6960 C   0  0  0  0  0  0  0  0  0  0  0  0
    7.9000   -2.2580   22.9361 C   0  0  0  0  0  0  0  0  0  0  0  0
    6.7834   -2.0096   21.9658 C   0  0  0  0  0  0  0  0  0  0  0  0
    7.0623   -0.7162   21.2593 N   0  0  0  0  0  0  0  0  0  0  0  0
    8.3514   -0.1652   21.7929 C   0  0  0  0  0  0  0  0  0  0  0  0
    9.0075    1.1141   21.3652 O   0  0  0  0  0  0  0  0  0  0  0  0
    8.8692   -1.1180   22.8292 C   0  0  0  0  0  0  0  0  0  0  0  0
    9.7431    0.0816   22.6126 C   0  0  0  0  0  0  0  0  0  0  0  0
   11.0079    0.2407   23.4032 N   0  0  0  0  0  0  0  0  0  0  0  0
   11.3987   -0.7998   24.4104 C   0  0  0  0  0  0  0  0  0  0  0  0
   12.6634   -0.6408   25.2010 O   0  0  0  0  0  0  0  0  0  0  0  0
   10.5247   -1.9996   24.6270 C   0  0  0  0  0  0  0  0  0  0  0  0
   10.9155   -3.0402   25.6342 C   0  0  0  0  0  0  0  0  0  0  0  0
   10.0415   -4.2398   25.8508 C   0  0  0  0  0  0  0  0  0  0  0  0
    8.7768   -4.3989   25.0601 C   0  0  0  0  0  0  0  0  0  0  0  0
    8.3860   -3.3584   24.0530 C   0  0  0  0  0  0  0  0  0  0  0  0
    9.2599   -2.1587   23.8364 C   0  0  0  0  0  0  0  0  0  0  0  0
    6.2031   -0.0846   20.2043 C   0  0  0  0  0  0  0  0  0  0  0  0
    6.6000   -0.1748   18.7607 C   0  0  0  0  0  0  0  0  0  0  0  0
    5.7408    0.4567   17.7058 N   0  0  0  0  0  0  0  0  0  0  0  0
    4.4847    1.1786   18.0946 C   0  0  0  0  0  0  0  0  0  0  0  0
    4.0878    1.2688   19.5384 C   0  0  0  0  0  0  0  0  0  0  0  0
    2.8317    1.9907   19.9272 C   0  0  0  0  0  0  0  0  0  0  0  0
    2.4349    2.0809   21.3709 C   0  0  0  0  0  0  0  0  0  0  0  0
    3.2941    1.4493   22.4258 C   0  0  0  0  0  0  0  0  0  0  0  0
    4.5502    0.7275   22.0369 C   0  0  0  0  0  0  0  0  0  0  0  0
    4.9470    0.6372   20.5933 C   0  0  0  0  0  0  0  0  0  0  0  0
   11.8819    1.4405   23.1866 C   0  0  0  0  0  0  0  0  0  0  0  0
   11.2631    2.7849   22.9424 C   0  0  0  0  0  0  0  0  0  0  0  0
   12.0504    3.8585   22.2515 O   0  0  0  0  0  0  0  0  0  0  0  0
    9.8570    3.0556   23.3890 N   0  0  0  0  0  0  0  0  0  0  0  0
    9.3402    2.3509   23.8425 H   0  0  0  0  0  0  0  0  0  0  0  0
    9.2381    4.4000   23.1448 C   0  0  0  0  0  0  0  0  0  0  0  0
    7.7696    4.6024   23.3735 C   0  0  0  0  0  0  0  0  0  0  0  0
    6.6651    3.7558   22.8134 C   0  0  0  0  0  0  0  0  0  0  0  0
    5.3606    4.3171   23.2962 C   0  0  0  0  0  0  0  0  0  0  0  0
    5.6588    5.5105   24.1546 N   0  0  0  0  0  0  0  0  0  0  0  0
    7.1476    5.6868   24.2024 N   0  0  0  0  0  0  0  0  0  0  0  0
    7.8849    6.7592   24.9481 C   0  0  0  0  0  0  0  0  0  0  0  0
  2  1  1  0  0  0
  2  3  1  0  0  0
  3  4  1  0  0  0
  4 18  1  0  0  0
 18 19  2  0  0  0
 19 20  1  0  0  0
 20 21  2  0  0  0
 21 22  1  0  0  0
 22 23  2  0  0  0
 23 24  1  0  0  0
 24 25  2  0  0  0
 25 26  1  0  0  0
 26 27  2  0  0  0
  4  5  1  0  0  0
  5  6  2  0  0  0
  5  7  1  0  0  0
  7  8  1  0  0  0
  8  9  1  0  0  0
  9 28  1  0  0  0
 28 29  1  0  0  0
 29 30  2  0  0  0
 29 31  1  0  0  0
 31 33  1  0  0  0
 33 34  1  0  0  0
 34 35  2  0  0  0
 35 36  1  0  0  0
 36 37  2  0  0  0
 37 38  1  0  0  0
 38 39  1  0  0  0
  9 10  1  0  0  0
 10 11  2  0  0  0
 10 12  1  0  0  0
 12 13  2  0  0  0
 13 14  1  0  0  0
 14 15  2  0  0  0
 15 16  1  0  0  0
 16 17  2  0  0  0
  7  2  1  0  0  0
 38 34  1  0  0  0
 17 12  1  0  0  0
 27 18  1  0  0  0
 17  7  1  0  0  0
 27 22  1  0  0  0
 31 32  1  0  0  0
M  END
> <minimizedAffinity>
-9.33603

> <CNNscore>
0.3339279890

> <CNNaffinity>
6.8792457581

> <CNN_VS>
2.2971727848

> <CNNaffinity_variance>
0.1526633799

$$$$



 39 44  0  0  0  0  0  0  0  0999 V2000
   10.9197   -3.0374   25.0659 C   0  0  0  0  0  0  0  0  0  0  0  0
    9.4856   -2.5992   25.1036 C   0  0  0  0  0  0  0  0  0  0  0  0
    8.5817   -3.6786   25.6213 C   0  0  0  0  0  0  0  0  0  0  0  0
    7.1787   -3.1480   25.6210 N   0  0  0  0  0  0  0  0  0  0  0  0
    7.2155   -1.7407   25.1031 C   0  0  0  0  0  0  0  0  0  0  0  0
    6.0339   -0.8321   24.9346 O   0  0  0  0  0  0  0  0  0  0  0  0
    8.6412   -1.4015   24.7833 C   0  0  0  0  0  0  0  0  0  0  0  0
    7.6734   -0.2884   24.5108 C   0  0  0  0  0  0  0  0  0  0  0  0
    8.1679    1.0189   23.9664 N   0  0  0  0  0  0  0  0  0  0  0  0
    9.6302    1.2130   23.6944 C   0  0  0  0  0  0  0  0  0  0  0  0
   10.1247    2.5203   23.1499 O   0  0  0  0  0  0  0  0  0  0  0  0
   10.5981    0.0999   23.9669 C   0  0  0  0  0  0  0  0  0  0  0  0
   12.0603    0.2940   23.6949 C   0  0  0  0  0  0  0  0  0  0  0  0
   13.0281   -0.8191   23.9674 C   0  0  0  0  0  0  0  0  0  0  0  0
   12.5336   -2.1264   24.5119 C   0  0  0  0  0  0  0  0  0  0  0  0
   11.0713   -2.3205   24.7838 C   0  0  0  0  0  0  0  0  0  0  0  0
   10.1036   -1.2074   24.5113 C   0  0  0  0  0  0  0  0  0  0  0  0
    5.9540   -3.8937   26.0614 C   0  0  0  0  0  0  0  0  0  0  0  0
    5.2499   -4.8103   25.1054 C   0  0  0  0  0  0  0  0  0  0  0  0
    4.0251   -5.5560   25.5457 N   0  0  0  0  0  0  0  0  0  0  0  0
    3.5045   -5.3851   26.9420 C   0  0  0  0  0  0  0  0  0  0  0  0
    4.2087   -4.4685   27.8980 C   0  0  0  0  0  0  0  0  0  0  0  0
    3.6880   -4.2975   29.2944 C   0  0  0  0  0  0  0  0  0  0  0  0
    4.3923   -3.3809   30.2504 C   0  0  0  0  0  0  0  0  0  0  0  0
    5.6170   -2.6352   29.8100 C   0  0  0  0  0  0  0  0  0  0  0  0
    6.1375   -2.8062   28.4137 C   0  0  0  0  0  0  0  0  0  0  0  0
    5.4334   -3.7227   27.4577 C   0  0  0  0  0  0  0  0  0  0  0  0
    7.2001    2.1321   23.6939 C   0  0  0  0  0  0  0  0  0  0  0  0
    6.2452    2.0304   22.5416 C   0  0  0  0  0  0  0  0  0  0  0  0
    6.1571    3.1436   21.5401 O   0  0  0  0  0  0  0  0  0  0  0  0
    5.3784    0.8156   22.3908 N   0  0  0  0  0  0  0  0  0  0  0  0
    5.4362    0.0850   23.0481 H   0  0  0  0  0  0  0  0  0  0  0  0
    4.4235    0.7139   21.2384 C   0  0  0  0  0  0  0  0  0  0  0  0
    4.9417    0.7336   19.8310 C   0  0  0  0  0  0  0  0  0  0  0  0
    4.2170    1.2697   18.6320 C   0  0  0  0  0  0  0  0  0  0  0  0
    5.1030    1.0881   17.4353 C   0  0  0  0  0  0  0  0  0  0  0  0
    6.3753    0.4397   17.8947 N   0  0  0  0  0  0  0  0  0  0  0  0
    6.2755    0.2206   19.3753 N   0  0  0  0  0  0  0  0  0  0  0  0
    7.3254   -0.4022   20.2471 C   0  0  0  0  0  0  0  0  0  0  0  0
  2  1  1  0  0  0
  2  3  1  0  0  0
  3  4  1  0  0  0
  4 18  1  0  0  0
 18 19  2  0  0  0
 19 20  1  0  0  0
 20 21  2  0  0  0
 21 22  1  0  0  0
 22 23  2  0  0  0
 23 24  1  0  0  0
 24 25  2  0  0  0
 25 26  1  0  0  0
 26 27  2  0  0  0
  4  5  1  0  0  0
  5  6  2  0  0  0
  5  7  1  0  0  0
  7  8  1  0  0  0
  8  9  1  0  0  0
  9 28  1  0  0  0
 28 29  1  0  0  0
 29 30  2  0  0  0
 29 31  1  0  0  0
 31 33  1  0  0  0
 33 34  1  0  0  0
 34 35  2  0  0  0
 35 36  1  0  0  0
 36 37  2  0  0  0
 37 38  1  0  0  0
 38 39  1  0  0  0
  9 10  1  0  0  0
 10 11  2  0  0  0
 10 12  1  0  0  0
 12 13  2  0  0  0
 13 14  1  0  0  0
 14 15  2  0  0  0
 15 16  1  0  0  0
 16 17  2  0  0  0
  7  2  1  0  0  0
 38 34  1  0  0  0
 17 12  1  0  0  0
 27 18  1  0  0  0
 17  7  1  0  0  0
 27 22  1  0  0  0
 31 32  1  0  0  0
M  END
> <minimizedAffinity>
-8.96891

> <CNNscore>
0.3217565417

> <CNNaffinity>
6.5074820518

> <CNN_VS>
2.0938248634

> <CNNaffinity_variance>
0.0316263810

$$$$



 39 44  0  0  0  0  0  0  0  0999 V2000
   10.8852   -4.2354   26.0964 C   0  0  0  0  0  0  0  0  0  0  0  0
    9.8287   -3.8283   25.1124 C   0  0  0  0  0  0  0  0  0  0  0  0
    8.6661   -4.7761   25.1121 C   0  0  0  0  0  0  0  0  0  0  0  0
    7.6698   -4.2873   24.1029 N   0  0  0  0  0  0  0  0  0  0  0  0
    8.2168   -3.0374   23.4795 C   0  0  0  0  0  0  0  0  0  0  0  0
    7.5470   -2.2155   22.4184 O   0  0  0  0  0  0  0  0  0  0  0  0
    9.5510   -2.7537   24.1034 C   0  0  0  0  0  0  0  0  0  0  0  0
    9.1376   -1.7527   23.0656 C   0  0  0  0  0  0  0  0  0  0  0  0
   10.0364   -0.5973   22.7381 N   0  0  0  0  0  0  0  0  0  0  0  0
   11.3485   -0.4429   23.4483 C   0  0  0  0  0  0  0  0  0  0  0  0
   12.2472    0.7125   23.1207 O   0  0  0  0  0  0  0  0  0  0  0  0
   11.7620   -1.4440   24.4861 C   0  0  0  0  0  0  0  0  0  0  0  0
   13.0741   -1.2896   25.1963 C   0  0  0  0  0  0  0  0  0  0  0  0
   13.4875   -2.2906   26.2341 C   0  0  0  0  0  0  0  0  0  0  0  0
   12.5887   -3.4460   26.5617 C   0  0  0  0  0  0  0  0  0  0  0  0
   11.2766   -3.6004   25.8515 C   0  0  0  0  0  0  0  0  0  0  0  0
   10.8632   -2.5994   24.8137 C   0  0  0  0  0  0  0  0  0  0  0  0
    6.3572   -4.9347   23.7747 C   0  0  0  0  0  0  0  0  0  0  0  0
    6.1466   -5.5632   22.4292 C   0  0  0  0  0  0  0  0  0  0  0  0
    4.8339   -6.2106   22.1010 N   0  0  0  0  0  0  0  0  0  0  0  0
    3.7318   -6.2294   23.1183 C   0  0  0  0  0  0  0  0  0  0  0  0
    3.9424   -5.6009   24.4639 C   0  0  0  0  0  0  0  0  0  0  0  0
    2.8403   -5.6198   25.4813 C   0  0  0  0  0  0  0  0  0  0  0  0
    3.0510   -4.9912   26.8269 C   0  0  0  0  0  0  0  0  0  0  0  0
    4.3637   -4.3438   27.1550 C   0  0  0  0  0  0  0  0  0  0  0  0
    5.4657   -4.3250   26.1377 C   0  0  0  0  0  0  0  0  0  0  0  0
    5.2551   -4.9535   24.7921 C   0  0  0  0  0  0  0  0  0  0  0  0
    9.6229    0.4038   21.7002 C   0  0  0  0  0  0  0  0  0  0  0  0
    8.3174    1.1297   21.8365 C   0  0  0  0  0  0  0  0  0  0  0  0
    7.3952    1.2421   20.6588 O   0  0  0  0  0  0  0  0  0  0  0  0
    7.9341    1.7433   23.1505 N   0  0  0  0  0  0  0  0  0  0  0  0
    8.5394    1.6695   23.9234 H   0  0  0  0  0  0  0  0  0  0  0  0
    6.6285    2.4693   23.2868 C   0  0  0  0  0  0  0  0  0  0  0  0
    6.4700    3.8429   22.7056 C   0  0  0  0  0  0  0  0  0  0  0  0
    7.2578    5.0598   23.0913 C   0  0  0  0  0  0  0  0  0  0  0  0
    6.7705    6.2099   22.2608 C   0  0  0  0  0  0  0  0  0  0  0  0
    5.6815    5.7038   21.3618 N   0  0  0  0  0  0  0  0  0  0  0  0
    5.4958    4.2410   21.6367 N   0  0  0  0  0  0  0  0  0  0  0  0
    4.5092    3.3353   20.9613 C   0  0  0  0  0  0  0  0  0  0  0  0
  2  1  1  0  0  0
  2  3  1  0  0  0
  3  4  1  0  0  0
  4 18  1  0  0  0
 18 19  2  0  0  0
 19 20  1  0  0  0
 20 21  2  0  0  0
 21 22  1  0  0  0
 22 23  2  0  0  0
 23 24  1  0  0  0
 24 25  2  0  0  0
 25 26  1  0  0  0
 26 27  2  0  0  0
  4  5  1  0  0  0
  5  6  2  0  0  0
  5  7  1  0  0  0
  7  8  1  0  0  0
  8  9  1  0  0  0
  9 28  1  0  0  0
 28 29  1  0  0  0
 29 30  2  0  0  0
 29 31  1  0  0  0
 31 33  1  0  0  0
 33 34  1  0  0  0
 34 35  2  0  0  0
 35 36  1  0  0  0
 36 37  2  0  0  0
 37 38  1  0  0  0
 38 39  1  0  0  0
  9 10  1  0  0  0
 10 11  2  0  0  0
 10 12  1  0  0  0
 12 13  2  0  0  0
 13 14  1  0  0  0
 14 15  2  0  0  0
 15 16  1  0  0  0
 16 17  2  0  0  0
  7  2  1  0  0  0
 38 34  1  0  0  0
 17 12  1  0  0  0
 27 18  1  0  0  0
 17  7  1  0  0  0
 27 22  1  0  0  0
 31 32  1  0  0  0
M  END
> <minimizedAffinity>
-8.72680

> <CNNscore>
0.3167367578

> <CNNaffinity>
6.6270737648

> <CNN_VS>
2.0990378857

> <CNNaffinity_variance>
0.1947555691

$$$$



 39 44  0  0  0  0  0  0  0  0999 V2000
    7.3685   -0.2813   19.6622 C   0  0  0  0  0  0  0  0  0  0  0  0
    7.7096   -0.0315   21.1014 C   0  0  0  0  0  0  0  0  0  0  0  0
    9.0310   -0.6332   21.4782 C   0  0  0  0  0  0  0  0  0  0  0  0
    9.2816   -0.3318   22.9261 N   0  0  0  0  0  0  0  0  0  0  0  0
    8.1151    0.4562   23.4441 C   0  0  0  0  0  0  0  0  0  0  0  0
    7.9492    0.9686   24.8441 O   0  0  0  0  0  0  0  0  0  0  0  0
    7.1435    0.6417   22.3164 C   0  0  0  0  0  0  0  0  0  0  0  0
    6.7065    1.2680   23.6074 C   0  0  0  0  0  0  0  0  0  0  0  0
    5.3985    1.9986   23.6817 N   0  0  0  0  0  0  0  0  0  0  0  0
    4.5276    2.1028   22.4649 C   0  0  0  0  0  0  0  0  0  0  0  0
    3.2196    2.8334   22.5392 O   0  0  0  0  0  0  0  0  0  0  0  0
    4.9646    1.4765   21.1738 C   0  0  0  0  0  0  0  0  0  0  0  0
    4.0936    1.5808   19.9571 C   0  0  0  0  0  0  0  0  0  0  0  0
    4.5306    0.9545   18.6661 C   0  0  0  0  0  0  0  0  0  0  0  0
    5.8386    0.2239   18.5918 C   0  0  0  0  0  0  0  0  0  0  0  0
    6.7095    0.1197   19.8086 C   0  0  0  0  0  0  0  0  0  0  0  0
    6.2725    0.7460   21.0996 C   0  0  0  0  0  0  0  0  0  0  0  0
   10.4870   -0.7456   23.7171 C   0  0  0  0  0  0  0  0  0  0  0  0
   11.7366    0.0826   23.6682 C   0  0  0  0  0  0  0  0  0  0  0  0
   12.9421   -0.3313   24.4592 N   0  0  0  0  0  0  0  0  0  0  0  0
   12.8978   -1.5733   25.2990 C   0  0  0  0  0  0  0  0  0  0  0  0
   11.6481   -2.4015   25.3479 C   0  0  0  0  0  0  0  0  0  0  0  0
   11.6038   -3.6436   26.1878 C   0  0  0  0  0  0  0  0  0  0  0  0
   10.3541   -4.4717   26.2366 C   0  0  0  0  0  0  0  0  0  0  0  0
    9.1488   -4.0578   25.4456 C   0  0  0  0  0  0  0  0  0  0  0  0
    9.1930   -2.8158   24.6058 C   0  0  0  0  0  0  0  0  0  0  0  0
   10.4427   -1.9877   24.5569 C   0  0  0  0  0  0  0  0  0  0  0  0
    4.9616    2.6249   24.9728 C   0  0  0  0  0  0  0  0  0  0  0  0
    4.5229    1.7585   26.1160 C   0  0  0  0  0  0  0  0  0  0  0  0
    3.0641    1.6224   26.4371 O   0  0  0  0  0  0  0  0  0  0  0  0
    5.5432    1.0283   26.9380 N   0  0  0  0  0  0  0  0  0  0  0  0
    6.5007    1.1177   26.7272 H   0  0  0  0  0  0  0  0  0  0  0  0
    5.1046    0.1619   28.0813 C   0  0  0  0  0  0  0  0  0  0  0  0
    5.4419   -1.2997   28.0871 C   0  0  0  0  0  0  0  0  0  0  0  0
    5.7056   -2.1389   29.3021 C   0  0  0  0  0  0  0  0  0  0  0  0
    6.0014   -3.5365   28.8449 C   0  0  0  0  0  0  0  0  0  0  0  0
    5.9205   -3.5611   27.3472 N   0  0  0  0  0  0  0  0  0  0  0  0
    5.5747   -2.1787   26.8789 N   0  0  0  0  0  0  0  0  0  0  0  0
    5.3935   -1.7504   25.4528 C   0  0  0  0  0  0  0  0  0  0  0  0
  2  1  1  0  0  0
  2  3  1  0  0  0
  3  4  1  0  0  0
  4 18  1  0  0  0
 18 19  2  0  0  0
 19 20  1  0  0  0
 20 21  2  0  0  0
 21 22  1  0  0  0
 22 23  2  0  0  0
 23 24  1  0  0  0
 24 25  2  0  0  0
 25 26  1  0  0  0
 26 27  2  0  0  0
  4  5  1  0  0  0
  5  6  2  0  0  0
  5  7  1  0  0  0
  7  8  1  0  0  0
  8  9  1  0  0  0
  9 28  1  0  0  0
 28 29  1  0  0  0
 29 30  2  0  0  0
 29 31  1  0  0  0
 31 33  1  0  0  0
 33 34  1  0  0  0
 34 35  2  0  0  0
 35 36  1  0  0  0
 36 37  2  0  0  0
 37 38  1  0  0  0
 38 39  1  0  0  0
  9 10  1  0  0  0
 10 11  2  0  0  0
 10 12  1  0  0  0
 12 13  2  0  0  0
 13 14  1  0  0  0
 14 15  2  0  0  0
 15 16  1  0  0  0
 16 17  2  0  0  0
  7  2  1  0  0  0
 38 34  1  0  0  0
 17 12  1  0  0  0
 27 18  1  0  0  0
 17  7  1  0  0  0
 27 22  1  0  0  0
 31 32  1  0  0  0
M  END
> <minimizedAffinity>
-8.19168

> <CNNscore>
0.2910404801

> <CNNaffinity>
6.4351539612

> <CNN_VS>
1.8728903532

> <CNNaffinity_variance>
0.2298931628

$$$$



 39 44  0  0  0  0  0  0  0  0999 V2000
   10.9711   -2.4715   24.8766 C   0  0  0  0  0  0  0  0  0  0  0  0
    9.5752   -2.7032   24.3788 C   0  0  0  0  0  0  0  0  0  0  0  0
    8.9860   -3.9690   24.9271 C   0  0  0  0  0  0  0  0  0  0  0  0
    7.5985   -4.1115   24.3753 N   0  0  0  0  0  0  0  0  0  0  0  0
    7.3302   -2.9338   23.4858 C   0  0  0  0  0  0  0  0  0  0  0  0
    6.0628   -2.6724   22.7274 O   0  0  0  0  0  0  0  0  0  0  0  0
    8.5519   -2.0634   23.4880 C   0  0  0  0  0  0  0  0  0  0  0  0
    7.4347   -1.5446   22.6321 C   0  0  0  0  0  0  0  0  0  0  0  0
    7.6034   -0.2600   21.8762 N   0  0  0  0  0  0  0  0  0  0  0  0
    8.8893    0.5057   21.9762 C   0  0  0  0  0  0  0  0  0  0  0  0
    9.0580    1.7903   21.2203 O   0  0  0  0  0  0  0  0  0  0  0  0
   10.0066   -0.0131   22.8321 C   0  0  0  0  0  0  0  0  0  0  0  0
   11.2925    0.7526   22.9321 C   0  0  0  0  0  0  0  0  0  0  0  0
   12.4097    0.2337   23.7880 C   0  0  0  0  0  0  0  0  0  0  0  0
   12.2410   -1.0509   24.5439 C   0  0  0  0  0  0  0  0  0  0  0  0
   10.9551   -1.8166   24.4439 C   0  0  0  0  0  0  0  0  0  0  0  0
    9.8379   -1.2977   23.5880 C   0  0  0  0  0  0  0  0  0  0  0  0
    6.6464   -5.2345   24.6624 C   0  0  0  0  0  0  0  0  0  0  0  0
    6.9135   -6.6036   24.1110 C   0  0  0  0  0  0  0  0  0  0  0  0
    5.9614   -7.7266   24.3981 N   0  0  0  0  0  0  0  0  0  0  0  0
    4.7423   -7.4804   25.2366 C   0  0  0  0  0  0  0  0  0  0  0  0
    4.4753   -6.1112   25.7881 C   0  0  0  0  0  0  0  0  0  0  0  0
    3.2561   -5.8651   26.6267 C   0  0  0  0  0  0  0  0  0  0  0  0
    2.9892   -4.4959   27.1781 C   0  0  0  0  0  0  0  0  0  0  0  0
    3.9413   -3.3730   26.8909 C   0  0  0  0  0  0  0  0  0  0  0  0
    5.1603   -3.6191   26.0524 C   0  0  0  0  0  0  0  0  0  0  0  0
    5.4274   -4.9882   25.5010 C   0  0  0  0  0  0  0  0  0  0  0  0
    6.4861    0.2589   21.0203 C   0  0  0  0  0  0  0  0  0  0  0  0
    5.4289    1.1384   21.6191 C   0  0  0  0  0  0  0  0  0  0  0  0
    4.4954    0.5888   22.6567 O   0  0  0  0  0  0  0  0  0  0  0  0
    5.3051    2.5674   21.1804 N   0  0  0  0  0  0  0  0  0  0  0  0
    5.9178    2.9280   20.4994 H   0  0  0  0  0  0  0  0  0  0  0  0
    4.2478    3.4469   21.7792 C   0  0  0  0  0  0  0  0  0  0  0  0
    3.1006    3.9206   20.9369 C   0  0  0  0  0  0  0  0  0  0  0  0
    2.1910    5.0708   21.2524 C   0  0  0  0  0  0  0  0  0  0  0  0
    1.1899    5.1883   20.1416 C   0  0  0  0  0  0  0  0  0  0  0  0
    1.4808    4.1106   19.1395 N   0  0  0  0  0  0  0  0  0  0  0  0
    2.6617    3.3272   19.6311 N   0  0  0  0  0  0  0  0  0  0  0  0
    3.2928    2.1559   18.9384 C   0  0  0  0  0  0  0  0  0  0  0  0
  2  1  1  0  0  0
  2  3  1  0  0  0
  3  4  1  0  0  0
  4 18  1  0  0  0
 18 19  2  0  0  0
 19 20  1  0  0  0
 20 21  2  0  0  0
 21 22  1  0  0  0
 22 23  2  0  0  0
 23 24  1  0  0  0
 24 25  2  0  0  0
 25 26  1  0  0  0
 26 27  2  0  0  0
  4  5  1  0  0  0
  5  6  2  0  0  0
  5  7  1  0  0  0
  7  8  1  0  0  0
  8  9  1  0  0  0
  9 28  1  0  0  0
 28 29  1  0  0  0
 29 30  2  0  0  0
 29 31  1  0  0  0
 31 33  1  0  0  0
 33 34  1  0  0  0
 34 35  2  0  0  0
 35 36  1  0  0  0
 36 37  2  0  0  0
 37 38  1  0  0  0
 38 39  1  0  0  0
  9 10  1  0  0  0
 10 11  2  0  0  0
 10 12  1  0  0  0
 12 13  2  0  0  0
 13 14  1  0  0  0
 14 15  2  0  0  0
 15 16  1  0  0  0
 16 17  2  0  0  0
  7  2  1  0  0  0
 38 34  1  0  0  0
 17 12  1  0  0  0
 27 18  1  0  0  0
 17  7  1  0  0  0
 27 22  1  0  0  0
 31 32  1  0  0  0
M  END
> <minimizedAffinity>
-8.70786

> <CNNscore>
0.2792426646

> <CNNaffinity>
6.3635363579

> <CNN_VS>
1.7769708633

> <CNNaffinity_variance>
0.1381763965

$$$$
