


 36 41  0  0  0  0  0  0  0  0999 V2000
    5.1717    0.7653   21.6652 N   0  0  0  0  0  0  0  0  0  0  0  0
    6.4919    0.0989   21.9162 C   0  0  0  0  0  0  0  0  0  0  0  0
    6.7653   -0.5487   23.2412 C   0  0  0  0  0  0  0  0  0  0  0  0
    7.1800   -1.2342   24.5093 C   0  0  0  0  0  0  0  0  0  0  0  0
    6.7446   -1.4900   25.6145 O   0  0  0  0  0  0  0  0  0  0  0  0
    8.5736   -1.7558   24.3200 N   0  0  0  0  0  0  0  0  0  0  0  0
    9.0202   -1.3926   22.9348 C   0  0  0  0  0  0  0  0  0  0  0  0
    7.9026   -0.6467   22.2681 C   0  0  0  0  0  0  0  0  0  0  0  0
    7.9194   -0.0954   20.8732 C   0  0  0  0  0  0  0  0  0  0  0  0
    5.7184   -0.5300   24.3154 C   0  0  0  0  0  0  0  0  0  0  0  0
    5.9917   -1.1777   25.6404 C   0  0  0  0  0  0  0  0  0  0  0  0
    4.9449   -1.1589   26.7145 C   0  0  0  0  0  0  0  0  0  0  0  0
    5.2182   -1.8066   28.0396 Cl  0  0  0  0  0  0  0  0  0  0  0  0
    3.6247   -0.4925   26.4636 C   0  0  0  0  0  0  0  0  0  0  0  0
    3.3513    0.1551   25.1385 C   0  0  0  0  0  0  0  0  0  0  0  0
    4.3982    0.1364   24.0644 C   0  0  0  0  0  0  0  0  0  0  0  0
    4.1248    0.7840   22.7393 C   0  0  0  0  0  0  0  0  0  0  0  0
    2.8046    1.4504   22.4883 O   0  0  0  0  0  0  0  0  0  0  0  0
    9.3791   -2.5083   25.3372 C   0  0  0  0  0  0  0  0  0  0  0  0
    8.7031   -3.4761   26.2626 C   0  0  0  0  0  0  0  0  0  0  0  0
    9.5086   -4.2287   27.2798 N   0  0  0  0  0  0  0  0  0  0  0  0
   10.9902   -4.0134   27.3717 C   0  0  0  0  0  0  0  0  0  0  0  0
   11.6663   -3.0455   26.4464 C   0  0  0  0  0  0  0  0  0  0  0  0
   13.1480   -2.8302   26.5383 C   0  0  0  0  0  0  0  0  0  0  0  0
   13.8239   -1.8623   25.6129 C   0  0  0  0  0  0  0  0  0  0  0  0
   13.0184   -1.1098   24.5957 C   0  0  0  0  0  0  0  0  0  0  0  0
   11.5368   -1.3251   24.5038 C   0  0  0  0  0  0  0  0  0  0  0  0
   10.8607   -2.2930   25.4291 C   0  0  0  0  0  0  0  0  0  0  0  0
    4.8984    1.4130   20.3401 C   0  0  0  0  0  0  0  0  0  0  0  0
    4.5184    2.4586   19.3340 C   0  0  0  0  0  0  0  0  0  0  0  0
    4.4965    2.7836   20.7981 C   0  0  0  0  0  0  0  0  0  0  0  0
    5.2140   -2.2845   18.9335 C   0  0  0  0  0  0  0  0  0  0  0  0
    4.9070   -1.1387   19.8516 N   0  0  0  0  0  0  0  0  0  0  0  0
    5.2053    0.2672   19.4220 C   0  0  0  0  0  0  0  0  0  0  0  0
    5.8105    0.5272   18.0744 O   0  0  0  0  0  0  0  0  0  0  0  0
    4.5098   -1.3093   20.7361 H   0  0  0  0  0  0  0  0  0  0  0  0
 32 33  1  0  0  0
 33 34  1  0  0  0
 34 35  2  0  0  0
 34 29  1  0  0  0
 29  1  1  0  0  0
  1  2  1  0  0  0
  3  2  1  0  0  0
  3  4  1  0  0  0
  4  5  2  0  0  0
  4  6  1  0  0  0
  6 19  1  0  0  0
 19 20  2  0  0  0
 20 21  1  0  0  0
 21 22  2  0  0  0
 22 23  1  0  0  0
 23 24  2  0  0  0
 24 25  1  0  0  0
 25 26  2  0  0  0
 26 27  1  0  0  0
 27 28  2  0  0  0
  6  7  1  0  0  0
  7  8  1  0  0  0
  8  9  1  0  0  0
  3 10  1  0  0  0
 10 11  2  0  0  0
 11 12  1  0  0  0
 12 13  1  0  0  0
 12 14  2  0  0  0
 14 15  1  0  0  0
 15 16  2  0  0  0
 16 17  1  0  0  0
 17 18  2  0  0  0
 29 30  1  0  0  0
 30 31  1  0  0  0
 31 29  1  0  0  0
 17  1  1  0  0  0
  8  3  1  0  0  0
 16 10  1  0  0  0
 28 19  1  0  0  0
 28 23  1  0  0  0
 33 36  1  0  0  0
M  END
> <minimizedAffinity>
-7.25866

> <CNNscore>
0.4064344764

> <CNNaffinity>
6.5391798019

> <CNN_VS>
2.6577482224

> <CNNaffinity_variance>
0.0900367871

$$$$



 36 41  0  0  0  0  0  0  0  0999 V2000
    9.7892    0.9074   23.7062 N   0  0  0  0  0  0  0  0  0  0  0  0
    8.4642    0.5649   24.3203 C   0  0  0  0  0  0  0  0  0  0  0  0
    8.3335   -0.6475   25.1938 C   0  0  0  0  0  0  0  0  0  0  0  0
    8.0514   -1.8214   26.0840 C   0  0  0  0  0  0  0  0  0  0  0  0
    8.6224   -2.7734   26.5779 O   0  0  0  0  0  0  0  0  0  0  0  0
    6.6015   -1.7757   26.4659 N   0  0  0  0  0  0  0  0  0  0  0  0
    5.9875   -0.5736   25.8118 C   0  0  0  0  0  0  0  0  0  0  0  0
    7.0579    0.1237   25.0256 C   0  0  0  0  0  0  0  0  0  0  0  0
    6.8834    1.3729   24.2138 C   0  0  0  0  0  0  0  0  0  0  0  0
    9.5277   -1.5173   25.4533 C   0  0  0  0  0  0  0  0  0  0  0  0
    9.3970   -2.7296   26.3268 C   0  0  0  0  0  0  0  0  0  0  0  0
   10.5912   -3.5994   26.5863 C   0  0  0  0  0  0  0  0  0  0  0  0
   10.4605   -4.8118   27.4598 Cl  0  0  0  0  0  0  0  0  0  0  0  0
   11.9161   -3.2568   25.9721 C   0  0  0  0  0  0  0  0  0  0  0  0
   12.0469   -2.0445   25.0986 C   0  0  0  0  0  0  0  0  0  0  0  0
   10.8527   -1.1747   24.8392 C   0  0  0  0  0  0  0  0  0  0  0  0
   10.9834    0.0377   23.9656 C   0  0  0  0  0  0  0  0  0  0  0  0
   12.3084    0.3802   23.3515 O   0  0  0  0  0  0  0  0  0  0  0  0
    5.8906   -2.7595   27.3473 C   0  0  0  0  0  0  0  0  0  0  0  0
    5.4729   -4.0920   26.7995 C   0  0  0  0  0  0  0  0  0  0  0  0
    4.7619   -5.0757   27.6808 N   0  0  0  0  0  0  0  0  0  0  0  0
    4.4686   -4.7270   29.1099 C   0  0  0  0  0  0  0  0  0  0  0  0
    4.8863   -3.3945   29.6577 C   0  0  0  0  0  0  0  0  0  0  0  0
    4.5929   -3.0457   31.0868 C   0  0  0  0  0  0  0  0  0  0  0  0
    5.0106   -1.7132   31.6345 C   0  0  0  0  0  0  0  0  0  0  0  0
    5.7216   -0.7295   30.7532 C   0  0  0  0  0  0  0  0  0  0  0  0
    6.0149   -1.0782   29.3241 C   0  0  0  0  0  0  0  0  0  0  0  0
    5.5972   -2.4107   28.7763 C   0  0  0  0  0  0  0  0  0  0  0  0
    9.9199    2.1198   22.8326 C   0  0  0  0  0  0  0  0  0  0  0  0
   10.4562    3.4061   22.2778 C   0  0  0  0  0  0  0  0  0  0  0  0
   11.1328    2.7537   23.4467 C   0  0  0  0  0  0  0  0  0  0  0  0
    6.5118    2.7373   20.8952 C   0  0  0  0  0  0  0  0  0  0  0  0
    7.6794    2.9501   21.8126 N   0  0  0  0  0  0  0  0  0  0  0  0
    8.7524    1.9070   21.9153 C   0  0  0  0  0  0  0  0  0  0  0  0
    8.6578    0.6510   21.1007 O   0  0  0  0  0  0  0  0  0  0  0  0
    7.7415    3.7745   22.3472 H   0  0  0  0  0  0  0  0  0  0  0  0
 32 33  1  0  0  0
 33 34  1  0  0  0
 34 35  2  0  0  0
 34 29  1  0  0  0
 29  1  1  0  0  0
  1  2  1  0  0  0
  3  2  1  0  0  0
  3  4  1  0  0  0
  4  5  2  0  0  0
  4  6  1  0  0  0
  6 19  1  0  0  0
 19 20  2  0  0  0
 20 21  1  0  0  0
 21 22  2  0  0  0
 22 23  1  0  0  0
 23 24  2  0  0  0
 24 25  1  0  0  0
 25 26  2  0  0  0
 26 27  1  0  0  0
 27 28  2  0  0  0
  6  7  1  0  0  0
  7  8  1  0  0  0
  8  9  1  0  0  0
  3 10  1  0  0  0
 10 11  2  0  0  0
 11 12  1  0  0  0
 12 13  1  0  0  0
 12 14  2  0  0  0
 14 15  1  0  0  0
 15 16  2  0  0  0
 16 17  1  0  0  0
 17 18  2  0  0  0
 29 30  1  0  0  0
 30 31  1  0  0  0
 31 29  1  0  0  0
 17  1  1  0  0  0
  8  3  1  0  0  0
 16 10  1  0  0  0
 28 19  1  0  0  0
 28 23  1  0  0  0
 33 36  1  0  0  0
M  END
> <minimizedAffinity>
-7.26830

> <CNNscore>
0.3714579344

> <CNNaffinity>
6.3286657333

> <CNN_VS>
2.3508331776

> <CNNaffinity_variance>
0.1022164077

$$$$



 36 41  0  0  0  0  0  0  0  0999 V2000
   10.7636   -1.0107   23.7269 N   0  0  0  0  0  0  0  0  0  0  0  0
   10.3539    0.4179   23.5238 C   0  0  0  0  0  0  0  0  0  0  0  0
    8.9402    0.8387   23.7960 C   0  0  0  0  0  0  0  0  0  0  0  0
    7.5700    1.4043   24.0258 C   0  0  0  0  0  0  0  0  0  0  0  0
    6.4651    1.0497   24.3861 O   0  0  0  0  0  0  0  0  0  0  0  0
    7.6118    2.8677   23.6992 N   0  0  0  0  0  0  0  0  0  0  0  0
    9.0078    3.2066   23.2676 C   0  0  0  0  0  0  0  0  0  0  0  0
    9.8287    1.9527   23.3274 C   0  0  0  0  0  0  0  0  0  0  0  0
   11.2830    1.8336   22.9797 C   0  0  0  0  0  0  0  0  0  0  0  0
    7.9359   -0.1691   24.2714 C   0  0  0  0  0  0  0  0  0  0  0  0
    6.5222    0.2517   24.5436 C   0  0  0  0  0  0  0  0  0  0  0  0
    5.5181   -0.7561   25.0190 C   0  0  0  0  0  0  0  0  0  0  0  0
    4.1042   -0.3354   25.2912 Cl  0  0  0  0  0  0  0  0  0  0  0  0
    5.9277   -2.1847   25.2221 C   0  0  0  0  0  0  0  0  0  0  0  0
    7.3415   -2.6055   24.9499 C   0  0  0  0  0  0  0  0  0  0  0  0
    8.3456   -1.5977   24.4745 C   0  0  0  0  0  0  0  0  0  0  0  0
    9.7594   -2.0185   24.2023 C   0  0  0  0  0  0  0  0  0  0  0  0
   10.1691   -3.4471   24.4054 O   0  0  0  0  0  0  0  0  0  0  0  0
    6.4598    3.8242   23.7886 C   0  0  0  0  0  0  0  0  0  0  0  0
    6.3835    4.8026   24.9231 C   0  0  0  0  0  0  0  0  0  0  0  0
    5.2316    5.7591   25.0125 N   0  0  0  0  0  0  0  0  0  0  0  0
    4.1558    5.7373   23.9674 C   0  0  0  0  0  0  0  0  0  0  0  0
    4.2321    4.7590   22.8329 C   0  0  0  0  0  0  0  0  0  0  0  0
    3.1563    4.7372   21.7877 C   0  0  0  0  0  0  0  0  0  0  0  0
    3.2326    3.7588   20.6532 C   0  0  0  0  0  0  0  0  0  0  0  0
    4.3846    2.8023   20.5639 C   0  0  0  0  0  0  0  0  0  0  0  0
    5.4603    2.8241   21.6090 C   0  0  0  0  0  0  0  0  0  0  0  0
    5.3841    3.8024   22.7435 C   0  0  0  0  0  0  0  0  0  0  0  0
   12.1774   -1.4314   23.4547 C   0  0  0  0  0  0  0  0  0  0  0  0
   13.4143   -1.8080   22.6943 C   0  0  0  0  0  0  0  0  0  0  0  0
   12.1592   -1.4504   21.9549 C   0  0  0  0  0  0  0  0  0  0  0  0
   14.3178   -2.6320   26.5735 C   0  0  0  0  0  0  0  0  0  0  0  0
   13.8087   -2.5049   25.1682 N   0  0  0  0  0  0  0  0  0  0  0  0
   12.6865   -1.5585   24.8599 C   0  0  0  0  0  0  0  0  0  0  0  0
   12.0734   -0.7394   25.9567 O   0  0  0  0  0  0  0  0  0  0  0  0
   14.2111   -3.0425   24.4483 H   0  0  0  0  0  0  0  0  0  0  0  0
 32 33  1  0  0  0
 33 34  1  0  0  0
 34 35  2  0  0  0
 34 29  1  0  0  0
 29  1  1  0  0  0
  1  2  1  0  0  0
  3  2  1  0  0  0
  3  4  1  0  0  0
  4  5  2  0  0  0
  4  6  1  0  0  0
  6 19  1  0  0  0
 19 20  2  0  0  0
 20 21  1  0  0  0
 21 22  2  0  0  0
 22 23  1  0  0  0
 23 24  2  0  0  0
 24 25  1  0  0  0
 25 26  2  0  0  0
 26 27  1  0  0  0
 27 28  2  0  0  0
  6  7  1  0  0  0
  7  8  1  0  0  0
  8  9  1  0  0  0
  3 10  1  0  0  0
 10 11  2  0  0  0
 11 12  1  0  0  0
 12 13  1  0  0  0
 12 14  2  0  0  0
 14 15  1  0  0  0
 15 16  2  0  0  0
 16 17  1  0  0  0
 17 18  2  0  0  0
 29 30  1  0  0  0
 30 31  1  0  0  0
 31 29  1  0  0  0
 17  1  1  0  0  0
  8  3  1  0  0  0
 16 10  1  0  0  0
 28 19  1  0  0  0
 28 23  1  0  0  0
 33 36  1  0  0  0
M  END
> <minimizedAffinity>
-7.68441

> <CNNscore>
0.3456504643

> <CNNaffinity>
6.7319803238

> <CNN_VS>
2.3269121647

> <CNNaffinity_variance>
0.0894497931

$$$$



 36 41  0  0  0  0  0  0  0  0999 V2000
    7.0280   -3.7792   23.6348 N   0  0  0  0  0  0  0  0  0  0  0  0
    7.1738   -2.3905   23.0868 C   0  0  0  0  0  0  0  0  0  0  0  0
    8.4050   -1.5896   23.3910 C   0  0  0  0  0  0  0  0  0  0  0  0
    9.5728   -0.6738   23.6090 C   0  0  0  0  0  0  0  0  0  0  0  0
   10.6454   -0.6527   24.1794 O   0  0  0  0  0  0  0  0  0  0  0  0
    9.2981    0.6089   22.8815 N   0  0  0  0  0  0  0  0  0  0  0  0
    7.9605    0.4859   22.2139 C   0  0  0  0  0  0  0  0  0  0  0  0
    7.4085   -0.8729   22.5288 C   0  0  0  0  0  0  0  0  0  0  0  0
    6.0914   -1.4191   22.0632 C   0  0  0  0  0  0  0  0  0  0  0  0
    9.4906   -2.1774   24.2432 C   0  0  0  0  0  0  0  0  0  0  0  0
   10.7218   -1.3764   24.5474 C   0  0  0  0  0  0  0  0  0  0  0  0
   11.8073   -1.9642   25.3995 C   0  0  0  0  0  0  0  0  0  0  0  0
   13.0386   -1.1633   25.7037 Cl  0  0  0  0  0  0  0  0  0  0  0  0
   11.6615   -3.3529   25.9475 C   0  0  0  0  0  0  0  0  0  0  0  0
   10.4303   -4.1538   25.6433 C   0  0  0  0  0  0  0  0  0  0  0  0
    9.3448   -3.5661   24.7912 C   0  0  0  0  0  0  0  0  0  0  0  0
    8.1135   -4.3670   24.4870 C   0  0  0  0  0  0  0  0  0  0  0  0
    7.9678   -5.7557   25.0350 O   0  0  0  0  0  0  0  0  0  0  0  0
   10.2022    1.8047   22.8307 C   0  0  0  0  0  0  0  0  0  0  0  0
   11.6734    1.6234   22.6011 C   0  0  0  0  0  0  0  0  0  0  0  0
   12.5775    2.8192   22.5502 N   0  0  0  0  0  0  0  0  0  0  0  0
   12.0105    4.1963   22.7289 C   0  0  0  0  0  0  0  0  0  0  0  0
   10.5392    4.3776   22.9584 C   0  0  0  0  0  0  0  0  0  0  0  0
    9.9722    5.7549   23.1371 C   0  0  0  0  0  0  0  0  0  0  0  0
    8.5009    5.9361   23.3666 C   0  0  0  0  0  0  0  0  0  0  0  0
    7.5968    4.7403   23.4175 C   0  0  0  0  0  0  0  0  0  0  0  0
    8.1639    3.3632   23.2388 C   0  0  0  0  0  0  0  0  0  0  0  0
    9.6351    3.1818   23.0093 C   0  0  0  0  0  0  0  0  0  0  0  0
    5.7967   -4.5802   23.3306 C   0  0  0  0  0  0  0  0  0  0  0  0
    4.8079   -5.4094   22.5661 C   0  0  0  0  0  0  0  0  0  0  0  0
    6.0671   -4.9399   21.8997 C   0  0  0  0  0  0  0  0  0  0  0  0
    4.0270   -5.6732   26.7104 C   0  0  0  0  0  0  0  0  0  0  0  0
    4.7249   -5.7548   25.3851 N   0  0  0  0  0  0  0  0  0  0  0  0
    5.0989   -4.4985   24.6559 C   0  0  0  0  0  0  0  0  0  0  0  0
    4.7752   -3.1607   25.2519 O   0  0  0  0  0  0  0  0  0  0  0  0
    4.9374   -6.6329   24.9939 H   0  0  0  0  0  0  0  0  0  0  0  0
 32 33  1  0  0  0
 33 34  1  0  0  0
 34 35  2  0  0  0
 34 29  1  0  0  0
 29  1  1  0  0  0
  1  2  1  0  0  0
  3  2  1  0  0  0
  3  4  1  0  0  0
  4  5  2  0  0  0
  4  6  1  0  0  0
  6 19  1  0  0  0
 19 20  2  0  0  0
 20 21  1  0  0  0
 21 22  2  0  0  0
 22 23  1  0  0  0
 23 24  2  0  0  0
 24 25  1  0  0  0
 25 26  2  0  0  0
 26 27  1  0  0  0
 27 28  2  0  0  0
  6  7  1  0  0  0
  7  8  1  0  0  0
  8  9  1  0  0  0
  3 10  1  0  0  0
 10 11  2  0  0  0
 11 12  1  0  0  0
 12 13  1  0  0  0
 12 14  2  0  0  0
 14 15  1  0  0  0
 15 16  2  0  0  0
 16 17  1  0  0  0
 17 18  2  0  0  0
 29 30  1  0  0  0
 30 31  1  0  0  0
 31 29  1  0  0  0
 17  1  1  0  0  0
  8  3  1  0  0  0
 16 10  1  0  0  0
 28 19  1  0  0  0
 28 23  1  0  0  0
 33 36  1  0  0  0
M  END
> <minimizedAffinity>
-7.47361

> <CNNscore>
0.3406381011

> <CNNaffinity>
6.6157760620

> <CNN_VS>
2.2535853386

> <CNNaffinity_variance>
0.1517962515

$$$$



 36 41  0  0  0  0  0  0  0  0999 V2000
   10.3639    0.8933   23.6144 N   0  0  0  0  0  0  0  0  0  0  0  0
    8.9703    0.4261   23.9139 C   0  0  0  0  0  0  0  0  0  0  0  0
    8.7539   -0.8016   24.7481 C   0  0  0  0  0  0  0  0  0  0  0  0
    8.3835   -2.0049   25.5635 C   0  0  0  0  0  0  0  0  0  0  0  0
    8.9105   -2.9061   26.1852 O   0  0  0  0  0  0  0  0  0  0  0  0
    6.8868   -2.0945   25.6042 N   0  0  0  0  0  0  0  0  0  0  0  0
    6.3321   -0.9466   24.8139 C   0  0  0  0  0  0  0  0  0  0  0  0
    7.4860   -0.1475   24.2848 C   0  0  0  0  0  0  0  0  0  0  0  0
    7.3891    1.0886   23.4406 C   0  0  0  0  0  0  0  0  0  0  0  0
    9.9311   -1.5622   25.2828 C   0  0  0  0  0  0  0  0  0  0  0  0
    9.7147   -2.7899   26.1169 C   0  0  0  0  0  0  0  0  0  0  0  0
   10.8919   -3.5504   26.6516 C   0  0  0  0  0  0  0  0  0  0  0  0
   10.6755   -4.7781   27.4858 Cl  0  0  0  0  0  0  0  0  0  0  0  0
   12.2854   -3.0832   26.3521 C   0  0  0  0  0  0  0  0  0  0  0  0
   12.5018   -1.8555   25.5179 C   0  0  0  0  0  0  0  0  0  0  0  0
   11.3247   -1.0950   24.9833 C   0  0  0  0  0  0  0  0  0  0  0  0
   11.5410    0.1328   24.1491 C   0  0  0  0  0  0  0  0  0  0  0  0
   12.9346    0.6000   23.8495 O   0  0  0  0  0  0  0  0  0  0  0  0
    6.0854   -3.1472   26.3110 C   0  0  0  0  0  0  0  0  0  0  0  0
    5.8874   -3.0682   27.7958 C   0  0  0  0  0  0  0  0  0  0  0  0
    5.0861   -4.1210   28.5026 N   0  0  0  0  0  0  0  0  0  0  0  0
    4.4828   -5.2527   27.7247 C   0  0  0  0  0  0  0  0  0  0  0  0
    4.6808   -5.3316   26.2399 C   0  0  0  0  0  0  0  0  0  0  0  0
    4.0774   -6.4634   25.4619 C   0  0  0  0  0  0  0  0  0  0  0  0
    4.2754   -6.5423   23.9772 C   0  0  0  0  0  0  0  0  0  0  0  0
    5.0768   -5.4896   23.2703 C   0  0  0  0  0  0  0  0  0  0  0  0
    5.6801   -4.3579   24.0483 C   0  0  0  0  0  0  0  0  0  0  0  0
    5.4821   -4.2789   25.5331 C   0  0  0  0  0  0  0  0  0  0  0  0
   10.5803    2.1211   22.7802 C   0  0  0  0  0  0  0  0  0  0  0  0
   11.2834    3.1636   21.9625 C   0  0  0  0  0  0  0  0  0  0  0  0
   12.0567    2.0144   22.5379 C   0  0  0  0  0  0  0  0  0  0  0  0
    7.2880    4.1059   23.7656 C   0  0  0  0  0  0  0  0  0  0  0  0
    8.6893    3.5729   23.8128 N   0  0  0  0  0  0  0  0  0  0  0  0
    9.1790    2.6541   22.7329 C   0  0  0  0  0  0  0  0  0  0  0  0
    8.2674    2.2684   21.6060 O   0  0  0  0  0  0  0  0  0  0  0  0
    9.2876    3.8261   24.5525 H   0  0  0  0  0  0  0  0  0  0  0  0
 32 33  1  0  0  0
 33 34  1  0  0  0
 34 35  2  0  0  0
 34 29  1  0  0  0
 29  1  1  0  0  0
  1  2  1  0  0  0
  3  2  1  0  0  0
  3  4  1  0  0  0
  4  5  2  0  0  0
  4  6  1  0  0  0
  6 19  1  0  0  0
 19 20  2  0  0  0
 20 21  1  0  0  0
 21 22  2  0  0  0
 22 23  1  0  0  0
 23 24  2  0  0  0
 24 25  1  0  0  0
 25 26  2  0  0  0
 26 27  1  0  0  0
 27 28  2  0  0  0
  6  7  1  0  0  0
  7  8  1  0  0  0
  8  9  1  0  0  0
  3 10  1  0  0  0
 10 11  2  0  0  0
 11 12  1  0  0  0
 12 13  1  0  0  0
 12 14  2  0  0  0
 14 15  1  0  0  0
 15 16  2  0  0  0
 16 17  1  0  0  0
 17 18  2  0  0  0
 29 30  1  0  0  0
 30 31  1  0  0  0
 31 29  1  0  0  0
 17  1  1  0  0  0
  8  3  1  0  0  0
 16 10  1  0  0  0
 28 19  1  0  0  0
 28 23  1  0  0  0
 33 36  1  0  0  0
M  END
> <minimizedAffinity>
-8.58229

> <CNNscore>
0.3301350772

> <CNNaffinity>
6.6230516434

> <CNN_VS>
2.1865017414

> <CNNaffinity_variance>
0.1847418547

$$$$



 36 41  0  0  0  0  0  0  0  0999 V2000
    6.9795    4.1733   23.6580 N   0  0  0  0  0  0  0  0  0  0  0  0
    7.8006    2.9606   23.3340 C   0  0  0  0  0  0  0  0  0  0  0  0
    7.7280    1.7485   24.2146 C   0  0  0  0  0  0  0  0  0  0  0  0
    7.7594    0.4698   24.9981 C   0  0  0  0  0  0  0  0  0  0  0  0
    7.2622   -0.0269   25.9893 O   0  0  0  0  0  0  0  0  0  0  0  0
    8.7127   -0.4675   24.3178 N   0  0  0  0  0  0  0  0  0  0  0  0
    9.2706    0.2320   23.1139 C   0  0  0  0  0  0  0  0  0  0  0  0
    8.6620    1.6015   23.0501 C   0  0  0  0  0  0  0  0  0  0  0  0
    8.9389    2.6415   22.0051 C   0  0  0  0  0  0  0  0  0  0  0  0
    6.8343    1.7491   25.4193 C   0  0  0  0  0  0  0  0  0  0  0  0
    6.7618    0.5370   26.2999 C   0  0  0  0  0  0  0  0  0  0  0  0
    5.8681    0.5376   27.5046 C   0  0  0  0  0  0  0  0  0  0  0  0
    5.7955   -0.6745   28.3853 Cl  0  0  0  0  0  0  0  0  0  0  0  0
    5.0469    1.7504   27.8286 C   0  0  0  0  0  0  0  0  0  0  0  0
    5.1195    2.9625   26.9480 C   0  0  0  0  0  0  0  0  0  0  0  0
    6.0132    2.9618   25.7434 C   0  0  0  0  0  0  0  0  0  0  0  0
    6.0858    4.1740   24.8627 C   0  0  0  0  0  0  0  0  0  0  0  0
    5.2647    5.3867   25.1868 O   0  0  0  0  0  0  0  0  0  0  0  0
    9.0491   -1.8597   24.7634 C   0  0  0  0  0  0  0  0  0  0  0  0
    8.0219   -2.9482   24.6626 C   0  0  0  0  0  0  0  0  0  0  0  0
    8.3582   -4.3405   25.1081 N   0  0  0  0  0  0  0  0  0  0  0  0
    9.7218   -4.6442   25.6544 C   0  0  0  0  0  0  0  0  0  0  0  0
   10.7490   -3.5557   25.7552 C   0  0  0  0  0  0  0  0  0  0  0  0
   12.1126   -3.8596   26.3015 C   0  0  0  0  0  0  0  0  0  0  0  0
   13.1397   -2.7710   26.4022 C   0  0  0  0  0  0  0  0  0  0  0  0
   12.8033   -1.3788   25.9566 C   0  0  0  0  0  0  0  0  0  0  0  0
   11.4398   -1.0750   25.4104 C   0  0  0  0  0  0  0  0  0  0  0  0
   10.4126   -2.1635   25.3096 C   0  0  0  0  0  0  0  0  0  0  0  0
    7.0521    5.3855   22.7773 C   0  0  0  0  0  0  0  0  0  0  0  0
    6.7053    6.3637   21.6944 C   0  0  0  0  0  0  0  0  0  0  0  0
    5.8700    5.1331   21.8891 C   0  0  0  0  0  0  0  0  0  0  0  0
   10.7587    6.7451   23.1802 C   0  0  0  0  0  0  0  0  0  0  0  0
    9.5513    6.0720   22.5978 N   0  0  0  0  0  0  0  0  0  0  0  0
    8.2594    6.0586   23.3598 C   0  0  0  0  0  0  0  0  0  0  0  0
    8.1748    6.7184   24.7042 O   0  0  0  0  0  0  0  0  0  0  0  0
    9.6068    5.6389   21.7154 H   0  0  0  0  0  0  0  0  0  0  0  0
 32 33  1  0  0  0
 33 34  1  0  0  0
 34 35  2  0  0  0
 34 29  1  0  0  0
 29  1  1  0  0  0
  1  2  1  0  0  0
  3  2  1  0  0  0
  3  4  1  0  0  0
  4  5  2  0  0  0
  4  6  1  0  0  0
  6 19  1  0  0  0
 19 20  2  0  0  0
 20 21  1  0  0  0
 21 22  2  0  0  0
 22 23  1  0  0  0
 23 24  2  0  0  0
 24 25  1  0  0  0
 25 26  2  0  0  0
 26 27  1  0  0  0
 27 28  2  0  0  0
  6  7  1  0  0  0
  7  8  1  0  0  0
  8  9  1  0  0  0
  3 10  1  0  0  0
 10 11  2  0  0  0
 11 12  1  0  0  0
 12 13  1  0  0  0
 12 14  2  0  0  0
 14 15  1  0  0  0
 15 16  2  0  0  0
 16 17  1  0  0  0
 17 18  2  0  0  0
 29 30  1  0  0  0
 30 31  1  0  0  0
 31 29  1  0  0  0
 17  1  1  0  0  0
  8  3  1  0  0  0
 16 10  1  0  0  0
 28 19  1  0  0  0
 28 23  1  0  0  0
 33 36  1  0  0  0
M  END
> <minimizedAffinity>
-7.57971

> <CNNscore>
0.2960151434

> <CNNaffinity>
6.1952400208

> <CNN_VS>
1.8338848352

> <CNNaffinity_variance>
0.2028022557

$$$$



 36 41  0  0  0  0  0  0  0  0999 V2000
    5.8627    3.3154   23.1452 N   0  0  0  0  0  0  0  0  0  0  0  0
    6.9542    2.2881   23.0879 C   0  0  0  0  0  0  0  0  0  0  0  0
    7.1017    1.2878   24.1958 C   0  0  0  0  0  0  0  0  0  0  0  0
    7.3711    0.2293   25.2239 C   0  0  0  0  0  0  0  0  0  0  0  0
    6.9378   -0.1669   26.2876 O   0  0  0  0  0  0  0  0  0  0  0  0
    8.5514   -0.5740   24.7638 N   0  0  0  0  0  0  0  0  0  0  0  0
    9.0114   -0.0120   23.4514 C   0  0  0  0  0  0  0  0  0  0  0  0
    8.1154    1.1387   23.1003 C   0  0  0  0  0  0  0  0  0  0  0  0
    8.2156    1.9906   21.8698 C   0  0  0  0  0  0  0  0  0  0  0  0
    6.1575    1.3146   25.3611 C   0  0  0  0  0  0  0  0  0  0  0  0
    6.3049    0.3143   26.4690 C   0  0  0  0  0  0  0  0  0  0  0  0
    5.3607    0.3412   27.6342 C   0  0  0  0  0  0  0  0  0  0  0  0
    5.5081   -0.6592   28.7422 Cl  0  0  0  0  0  0  0  0  0  0  0  0
    4.2692    1.3684   27.6916 C   0  0  0  0  0  0  0  0  0  0  0  0
    4.1218    2.3687   26.5836 C   0  0  0  0  0  0  0  0  0  0  0  0
    5.0659    2.3419   25.4184 C   0  0  0  0  0  0  0  0  0  0  0  0
    4.9185    3.3422   24.3104 C   0  0  0  0  0  0  0  0  0  0  0  0
    3.8270    4.3695   24.3677 O   0  0  0  0  0  0  0  0  0  0  0  0
    9.1641   -1.7354   25.4889 C   0  0  0  0  0  0  0  0  0  0  0  0
    8.2849   -2.7543   26.1514 C   0  0  0  0  0  0  0  0  0  0  0  0
    8.8976   -3.9157   26.8765 N   0  0  0  0  0  0  0  0  0  0  0  0
   10.3895   -4.0582   26.9391 C   0  0  0  0  0  0  0  0  0  0  0  0
   11.2687   -3.0393   26.2766 C   0  0  0  0  0  0  0  0  0  0  0  0
   12.7606   -3.1818   26.3392 C   0  0  0  0  0  0  0  0  0  0  0  0
   13.6398   -2.1629   25.6767 C   0  0  0  0  0  0  0  0  0  0  0  0
   13.0271   -1.0015   24.9516 C   0  0  0  0  0  0  0  0  0  0  0  0
   11.5352   -0.8590   24.8890 C   0  0  0  0  0  0  0  0  0  0  0  0
   10.6560   -1.8779   25.5515 C   0  0  0  0  0  0  0  0  0  0  0  0
    5.7153    4.3157   22.0372 C   0  0  0  0  0  0  0  0  0  0  0  0
    5.9217    5.5594   21.2244 C   0  0  0  0  0  0  0  0  0  0  0  0
    6.6826    5.3637   22.5022 C   0  0  0  0  0  0  0  0  0  0  0  0
    2.4183    3.6240   19.9393 C   0  0  0  0  0  0  0  0  0  0  0  0
    3.4368    4.3246   20.7890 N   0  0  0  0  0  0  0  0  0  0  0  0
    4.6969    3.6151   21.1875 C   0  0  0  0  0  0  0  0  0  0  0  0
    4.9385    2.2052   20.7364 O   0  0  0  0  0  0  0  0  0  0  0  0
    3.2782    5.2500   21.0851 H   0  0  0  0  0  0  0  0  0  0  0  0
 32 33  1  0  0  0
 33 34  1  0  0  0
 34 35  2  0  0  0
 34 29  1  0  0  0
 29  1  1  0  0  0
  1  2  1  0  0  0
  3  2  1  0  0  0
  3  4  1  0  0  0
  4  5  2  0  0  0
  4  6  1  0  0  0
  6 19  1  0  0  0
 19 20  2  0  0  0
 20 21  1  0  0  0
 21 22  2  0  0  0
 22 23  1  0  0  0
 23 24  2  0  0  0
 24 25  1  0  0  0
 25 26  2  0  0  0
 26 27  1  0  0  0
 27 28  2  0  0  0
  6  7  1  0  0  0
  7  8  1  0  0  0
  8  9  1  0  0  0
  3 10  1  0  0  0
 10 11  2  0  0  0
 11 12  1  0  0  0
 12 13  1  0  0  0
 12 14  2  0  0  0
 14 15  1  0  0  0
 15 16  2  0  0  0
 16 17  1  0  0  0
 17 18  2  0  0  0
 29 30  1  0  0  0
 30 31  1  0  0  0
 31 29  1  0  0  0
 17  1  1  0  0  0
  8  3  1  0  0  0
 16 10  1  0  0  0
 28 19  1  0  0  0
 28 23  1  0  0  0
 33 36  1  0  0  0
M  END
> <minimizedAffinity>
-7.53938

> <CNNscore>
0.2856595218

> <CNNaffinity>
6.2988667488

> <CNN_VS>
1.7993313074

> <CNNaffinity_variance>
0.1221641749

$$$$



 36 41  0  0  0  0  0  0  0  0999 V2000
    3.7924   -4.8069   26.4525 N   0  0  0  0  0  0  0  0  0  0  0  0
    5.0405   -4.9890   25.6408 C   0  0  0  0  0  0  0  0  0  0  0  0
    5.9708   -3.8322   25.4258 C   0  0  0  0  0  0  0  0  0  0  0  0
    6.9905   -2.7735   25.1270 C   0  0  0  0  0  0  0  0  0  0  0  0
    7.2057   -1.5988   25.3509 O   0  0  0  0  0  0  0  0  0  0  0  0
    8.0684   -3.3919   24.2869 N   0  0  0  0  0  0  0  0  0  0  0  0
    7.7148   -4.8329   24.0665 C   0  0  0  0  0  0  0  0  0  0  0  0
    6.4185   -5.1050   24.7704 C   0  0  0  0  0  0  0  0  0  0  0  0
    5.6965   -6.4192   24.8116 C   0  0  0  0  0  0  0  0  0  0  0  0
    5.6529   -2.4932   26.0226 C   0  0  0  0  0  0  0  0  0  0  0  0
    6.5832   -1.3363   25.8076 C   0  0  0  0  0  0  0  0  0  0  0  0
    6.2653    0.0026   26.4043 C   0  0  0  0  0  0  0  0  0  0  0  0
    7.1956    1.1595   26.1894 Cl  0  0  0  0  0  0  0  0  0  0  0  0
    5.0171    0.1847   27.2160 C   0  0  0  0  0  0  0  0  0  0  0  0
    4.0868   -0.9721   27.4310 C   0  0  0  0  0  0  0  0  0  0  0  0
    4.4047   -2.3111   26.8343 C   0  0  0  0  0  0  0  0  0  0  0  0
    3.4744   -3.4680   27.0493 C   0  0  0  0  0  0  0  0  0  0  0  0
    2.2263   -3.2859   27.8610 O   0  0  0  0  0  0  0  0  0  0  0  0
    9.2860   -2.6922   23.7598 C   0  0  0  0  0  0  0  0  0  0  0  0
    9.2246   -1.9648   22.4494 C   0  0  0  0  0  0  0  0  0  0  0  0
   10.4422   -1.2651   21.9223 N   0  0  0  0  0  0  0  0  0  0  0  0
   11.7212   -1.2929   22.7055 C   0  0  0  0  0  0  0  0  0  0  0  0
   11.7825   -2.0203   24.0159 C   0  0  0  0  0  0  0  0  0  0  0  0
   13.0615   -2.0481   24.7992 C   0  0  0  0  0  0  0  0  0  0  0  0
   13.1228   -2.7756   26.1095 C   0  0  0  0  0  0  0  0  0  0  0  0
   11.9052   -3.4753   26.6366 C   0  0  0  0  0  0  0  0  0  0  0  0
   10.6262   -3.4475   25.8534 C   0  0  0  0  0  0  0  0  0  0  0  0
   10.5649   -2.7200   24.5430 C   0  0  0  0  0  0  0  0  0  0  0  0
    2.8621   -5.9639   26.6675 C   0  0  0  0  0  0  0  0  0  0  0  0
    2.2395   -7.1733   27.2997 C   0  0  0  0  0  0  0  0  0  0  0  0
    3.4247   -6.5169   27.9433 C   0  0  0  0  0  0  0  0  0  0  0  0
    1.4041   -6.4094   23.0034 C   0  0  0  0  0  0  0  0  0  0  0  0
    2.2898   -6.5607   24.2046 N   0  0  0  0  0  0  0  0  0  0  0  0
    1.9764   -5.8126   25.4664 C   0  0  0  0  0  0  0  0  0  0  0  0
    0.7775   -4.9132   25.5270 O   0  0  0  0  0  0  0  0  0  0  0  0
    3.0767   -7.1510   24.1648 H   0  0  0  0  0  0  0  0  0  0  0  0
 32 33  1  0  0  0
 33 34  1  0  0  0
 34 35  2  0  0  0
 34 29  1  0  0  0
 29  1  1  0  0  0
  1  2  1  0  0  0
  3  2  1  0  0  0
  3  4  1  0  0  0
  4  5  2  0  0  0
  4  6  1  0  0  0
  6 19  1  0  0  0
 19 20  2  0  0  0
 20 21  1  0  0  0
 21 22  2  0  0  0
 22 23  1  0  0  0
 23 24  2  0  0  0
 24 25  1  0  0  0
 25 26  2  0  0  0
 26 27  1  0  0  0
 27 28  2  0  0  0
  6  7  1  0  0  0
  7  8  1  0  0  0
  8  9  1  0  0  0
  3 10  1  0  0  0
 10 11  2  0  0  0
 11 12  1  0  0  0
 12 13  1  0  0  0
 12 14  2  0  0  0
 14 15  1  0  0  0
 15 16  2  0  0  0
 16 17  1  0  0  0
 17 18  2  0  0  0
 29 30  1  0  0  0
 30 31  1  0  0  0
 31 29  1  0  0  0
 17  1  1  0  0  0
  8  3  1  0  0  0
 16 10  1  0  0  0
 28 19  1  0  0  0
 28 23  1  0  0  0
 33 36  1  0  0  0
M  END
> <minimizedAffinity>
-7.54284

> <CNNscore>
0.2808833718

> <CNNaffinity>
6.3662309647

> <CNN_VS>
1.7881684303

> <CNNaffinity_variance>
0.0977210999

$$$$



 36 41  0  0  0  0  0  0  0  0999 V2000
    5.2674    1.0849   20.9966 N   0  0  0  0  0  0  0  0  0  0  0  0
    6.6528    0.5109   21.0304 C   0  0  0  0  0  0  0  0  0  0  0  0
    7.3481    0.3066   22.3437 C   0  0  0  0  0  0  0  0  0  0  0  0
    8.1649    0.0464   23.5746 C   0  0  0  0  0  0  0  0  0  0  0  0
    8.0891    0.1560   24.7823 O   0  0  0  0  0  0  0  0  0  0  0  0
    9.4816   -0.5290   23.1442 N   0  0  0  0  0  0  0  0  0  0  0  0
    9.4786   -0.6245   21.6472 C   0  0  0  0  0  0  0  0  0  0  0  0
    8.1600   -0.1081   21.1525 C   0  0  0  0  0  0  0  0  0  0  0  0
    7.7291   -0.0215   19.7184 C   0  0  0  0  0  0  0  0  0  0  0  0
    6.6580    0.6763   23.6232 C   0  0  0  0  0  0  0  0  0  0  0  0
    7.3533    0.4719   24.9365 C   0  0  0  0  0  0  0  0  0  0  0  0
    6.6632    0.8416   26.2160 C   0  0  0  0  0  0  0  0  0  0  0  0
    7.3586    0.6373   27.5293 Cl  0  0  0  0  0  0  0  0  0  0  0  0
    5.2778    1.4156   26.1821 C   0  0  0  0  0  0  0  0  0  0  0  0
    4.5825    1.6199   24.8689 C   0  0  0  0  0  0  0  0  0  0  0  0
    5.2726    1.2503   23.5894 C   0  0  0  0  0  0  0  0  0  0  0  0
    4.5773    1.4546   22.2760 C   0  0  0  0  0  0  0  0  0  0  0  0
    3.1919    2.0286   22.2422 O   0  0  0  0  0  0  0  0  0  0  0  0
   10.6042   -0.9372   24.0515 C   0  0  0  0  0  0  0  0  0  0  0  0
   11.8190   -0.0668   24.1800 C   0  0  0  0  0  0  0  0  0  0  0  0
   12.9416   -0.4751   25.0873 N   0  0  0  0  0  0  0  0  0  0  0  0
   12.8493   -1.7537   25.8660 C   0  0  0  0  0  0  0  0  0  0  0  0
   11.6345   -2.6242   25.7375 C   0  0  0  0  0  0  0  0  0  0  0  0
   11.5422   -3.9029   26.5163 C   0  0  0  0  0  0  0  0  0  0  0  0
   10.3273   -4.7733   26.3877 C   0  0  0  0  0  0  0  0  0  0  0  0
    9.2047   -4.3650   25.4804 C   0  0  0  0  0  0  0  0  0  0  0  0
    9.2970   -3.0863   24.7017 C   0  0  0  0  0  0  0  0  0  0  0  0
   10.5119   -2.2159   24.8302 C   0  0  0  0  0  0  0  0  0  0  0  0
    4.5721    1.2892   19.6832 C   0  0  0  0  0  0  0  0  0  0  0  0
    3.7688    1.9478   18.6011 C   0  0  0  0  0  0  0  0  0  0  0  0
    4.0197    2.6679   19.8927 C   0  0  0  0  0  0  0  0  0  0  0  0
    5.1661   -2.5980   19.1477 C   0  0  0  0  0  0  0  0  0  0  0  0
    4.8552   -1.2901   19.8131 N   0  0  0  0  0  0  0  0  0  0  0  0
    4.8830   -0.0186   19.0177 C   0  0  0  0  0  0  0  0  0  0  0  0
    5.2217   -0.0551   17.5570 O   0  0  0  0  0  0  0  0  0  0  0  0
    4.6328   -1.2662   20.7719 H   0  0  0  0  0  0  0  0  0  0  0  0
 32 33  1  0  0  0
 33 34  1  0  0  0
 34 35  2  0  0  0
 34 29  1  0  0  0
 29  1  1  0  0  0
  1  2  1  0  0  0
  3  2  1  0  0  0
  3  4  1  0  0  0
  4  5  2  0  0  0
  4  6  1  0  0  0
  6 19  1  0  0  0
 19 20  2  0  0  0
 20 21  1  0  0  0
 21 22  2  0  0  0
 22 23  1  0  0  0
 23 24  2  0  0  0
 24 25  1  0  0  0
 25 26  2  0  0  0
 26 27  1  0  0  0
 27 28  2  0  0  0
  6  7  1  0  0  0
  7  8  1  0  0  0
  8  9  1  0  0  0
  3 10  1  0  0  0
 10 11  2  0  0  0
 11 12  1  0  0  0
 12 13  1  0  0  0
 12 14  2  0  0  0
 14 15  1  0  0  0
 15 16  2  0  0  0
 16 17  1  0  0  0
 17 18  2  0  0  0
 29 30  1  0  0  0
 30 31  1  0  0  0
 31 29  1  0  0  0
 17  1  1  0  0  0
  8  3  1  0  0  0
 16 10  1  0  0  0
 28 19  1  0  0  0
 28 23  1  0  0  0
 33 36  1  0  0  0
M  END
> <minimizedAffinity>
-7.02915

> <CNNscore>
0.2622025907

> <CNNaffinity>
6.4113974571

> <CNN_VS>
1.6810849905

> <CNNaffinity_variance>
0.1332520545

$$$$
