


 36 41  0  0  0  0  0  0  0  0999 V2000
   -6.5663    0.5485  -21.2525 N   0  0  0  0  0  0  0  0  0  0  0  0
   -6.8320    1.8302  -21.9853 C   0  0  0  0  0  0  0  0  0  0  0  0
   -8.1023    1.9989  -22.7649 C   0  0  0  0  0  0  0  0  0  0  0  0
   -9.3210    2.3112  -23.5817 C   0  0  0  0  0  0  0  0  0  0  0  0
  -10.3674    1.7983  -23.9259 O   0  0  0  0  0  0  0  0  0  0  0  0
   -9.1679    3.6985  -24.1311 N   0  0  0  0  0  0  0  0  0  0  0  0
   -7.8544    4.2437  -23.6539 C   0  0  0  0  0  0  0  0  0  0  0  0
   -7.1959    3.1932  -22.8095 C   0  0  0  0  0  0  0  0  0  0  0  0
   -5.8646    3.3157  -22.1292 C   0  0  0  0  0  0  0  0  0  0  0  0
   -9.1070    0.8860  -22.8119 C   0  0  0  0  0  0  0  0  0  0  0  0
  -10.3772    1.0547  -23.5915 C   0  0  0  0  0  0  0  0  0  0  0  0
  -11.3818   -0.0582  -23.6384 C   0  0  0  0  0  0  0  0  0  0  0  0
  -12.6522    0.1105  -24.4181 Cl  0  0  0  0  0  0  0  0  0  0  0  0
  -11.1161   -1.3398  -22.9057 C   0  0  0  0  0  0  0  0  0  0  0  0
   -9.8458   -1.5085  -22.1261 C   0  0  0  0  0  0  0  0  0  0  0  0
   -8.8413   -0.3957  -22.0791 C   0  0  0  0  0  0  0  0  0  0  0  0
   -7.5709   -0.5643  -21.2995 C   0  0  0  0  0  0  0  0  0  0  0  0
   -7.3052   -1.8460  -20.5667 O   0  0  0  0  0  0  0  0  0  0  0  0
  -10.1548    4.4149  -25.0044 C   0  0  0  0  0  0  0  0  0  0  0  0
   -9.8468    4.6416  -26.4548 C   0  0  0  0  0  0  0  0  0  0  0  0
  -10.8338    5.3580  -27.3281 N   0  0  0  0  0  0  0  0  0  0  0  0
  -12.1288    5.8477  -26.7510 C   0  0  0  0  0  0  0  0  0  0  0  0
  -12.4368    5.6211  -25.3005 C   0  0  0  0  0  0  0  0  0  0  0  0
  -13.7318    6.1109  -24.7233 C   0  0  0  0  0  0  0  0  0  0  0  0
  -14.0398    5.8842  -23.2729 C   0  0  0  0  0  0  0  0  0  0  0  0
  -13.0528    5.1678  -22.3996 C   0  0  0  0  0  0  0  0  0  0  0  0
  -11.7578    4.6781  -22.9768 C   0  0  0  0  0  0  0  0  0  0  0  0
  -11.4498    4.9047  -24.4272 C   0  0  0  0  0  0  0  0  0  0  0  0
   -5.2960    0.3799  -20.4729 C   0  0  0  0  0  0  0  0  0  0  0  0
   -3.8485    0.4908  -20.0956 C   0  0  0  0  0  0  0  0  0  0  0  0
   -4.3446    1.1262  -21.3605 C   0  0  0  0  0  0  0  0  0  0  0  0
   -5.9944   -2.6918  -18.0589 C   0  0  0  0  0  0  0  0  0  0  0  0
   -5.4842   -1.8868  -19.2173 N   0  0  0  0  0  0  0  0  0  0  0  0
   -5.8063   -0.4250  -19.3145 C   0  0  0  0  0  0  0  0  0  0  0  0
   -6.6386    0.2318  -18.2535 O   0  0  0  0  0  0  0  0  0  0  0  0
   -4.9379   -2.3179  -19.9137 H   0  0  0  0  0  0  0  0  0  0  0  0
 32 33  1  0  0  0
 33 34  1  0  0  0
 34 35  2  0  0  0
 34 29  1  0  0  0
 29  1  1  0  0  0
  1  2  1  0  0  0
  3  2  1  0  0  0
  3  4  1  0  0  0
  4  5  2  0  0  0
  4  6  1  0  0  0
  6 19  1  0  0  0
 19 20  2  0  0  0
 20 21  1  0  0  0
 21 22  2  0  0  0
 22 23  1  0  0  0
 23 24  2  0  0  0
 24 25  1  0  0  0
 25 26  2  0  0  0
 26 27  1  0  0  0
 27 28  2  0  0  0
  6  7  1  0  0  0
  7  8  1  0  0  0
  8  9  1  0  0  0
  3 10  1  0  0  0
 10 11  2  0  0  0
 11 12  1  0  0  0
 12 13  1  0  0  0
 12 14  2  0  0  0
 14 15  1  0  0  0
 15 16  2  0  0  0
 16 17  1  0  0  0
 17 18  2  0  0  0
 29 30  1  0  0  0
 30 31  1  0  0  0
 31 29  1  0  0  0
 17  1  1  0  0  0
  8  3  1  0  0  0
 16 10  1  0  0  0
 28 19  1  0  0  0
 28 23  1  0  0  0
 33 36  1  0  0  0
M  END
> <minimizedAffinity>
-7.34742

> <CNNscore>
0.3995907605

> <CNNaffinity>
6.1693463326

> <CNN_VS>
2.4652137756

> <CNNaffinity_variance>
0.1608571112

$$$$



 36 41  0  0  0  0  0  0  0  0999 V2000
   -8.0269   -4.0760  -25.9618 N   0  0  0  0  0  0  0  0  0  0  0  0
   -7.5192   -4.1001  -24.5506 C   0  0  0  0  0  0  0  0  0  0  0  0
   -7.2051   -2.8146  -23.8444 C   0  0  0  0  0  0  0  0  0  0  0  0
   -6.8504   -1.6166  -23.0144 C   0  0  0  0  0  0  0  0  0  0  0  0
   -6.8228   -0.4045  -23.0936 O   0  0  0  0  0  0  0  0  0  0  0  0
   -6.3890   -2.1026  -21.6724 N   0  0  0  0  0  0  0  0  0  0  0  0
   -6.4586   -3.6010  -21.6730 C   0  0  0  0  0  0  0  0  0  0  0  0
   -6.9629   -4.0410  -23.0154 C   0  0  0  0  0  0  0  0  0  0  0  0
   -7.1860   -5.4586  -23.4520 C   0  0  0  0  0  0  0  0  0  0  0  0
   -7.3987   -1.5048  -24.5495 C   0  0  0  0  0  0  0  0  0  0  0  0
   -7.0846   -0.2193  -23.8433 C   0  0  0  0  0  0  0  0  0  0  0  0
   -7.2782    1.0904  -24.5484 C   0  0  0  0  0  0  0  0  0  0  0  0
   -6.9641    2.3760  -23.8423 Cl  0  0  0  0  0  0  0  0  0  0  0  0
   -7.7859    1.1145  -25.9597 C   0  0  0  0  0  0  0  0  0  0  0  0
   -8.1000   -0.1710  -26.6658 C   0  0  0  0  0  0  0  0  0  0  0  0
   -7.9064   -1.4807  -25.9608 C   0  0  0  0  0  0  0  0  0  0  0  0
   -8.2205   -2.7663  -26.6669 C   0  0  0  0  0  0  0  0  0  0  0  0
   -8.7282   -2.7422  -28.0782 O   0  0  0  0  0  0  0  0  0  0  0  0
   -5.9374   -1.2414  -20.5303 C   0  0  0  0  0  0  0  0  0  0  0  0
   -6.6462   -1.3138  -19.2103 C   0  0  0  0  0  0  0  0  0  0  0  0
   -6.1946   -0.4526  -18.0682 N   0  0  0  0  0  0  0  0  0  0  0  0
   -5.0341    0.4811  -18.2461 C   0  0  0  0  0  0  0  0  0  0  0  0
   -4.3253    0.5535  -19.5661 C   0  0  0  0  0  0  0  0  0  0  0  0
   -3.1648    1.4872  -19.7440 C   0  0  0  0  0  0  0  0  0  0  0  0
   -2.4561    1.5595  -21.0641 C   0  0  0  0  0  0  0  0  0  0  0  0
   -2.9077    0.6983  -22.2061 C   0  0  0  0  0  0  0  0  0  0  0  0
   -4.0681   -0.2353  -22.0282 C   0  0  0  0  0  0  0  0  0  0  0  0
   -4.7770   -0.3077  -20.7082 C   0  0  0  0  0  0  0  0  0  0  0  0
   -8.3410   -5.3616  -26.6680 C   0  0  0  0  0  0  0  0  0  0  0  0
   -9.1310   -6.5174  -27.2064 C   0  0  0  0  0  0  0  0  0  0  0  0
   -9.8203   -5.4344  -26.4305 C   0  0  0  0  0  0  0  0  0  0  0  0
   -4.9417   -7.3576  -27.1268 C   0  0  0  0  0  0  0  0  0  0  0  0
   -6.3119   -6.9840  -26.6442 N   0  0  0  0  0  0  0  0  0  0  0  0
   -6.9708   -5.7351  -27.1506 C   0  0  0  0  0  0  0  0  0  0  0  0
   -6.2594   -4.8600  -28.1395 O   0  0  0  0  0  0  0  0  0  0  0  0
   -6.7789   -7.5584  -25.9952 H   0  0  0  0  0  0  0  0  0  0  0  0
 32 33  1  0  0  0
 33 34  1  0  0  0
 34 35  2  0  0  0
 34 29  1  0  0  0
 29  1  1  0  0  0
  1  2  1  0  0  0
  3  2  1  0  0  0
  3  4  1  0  0  0
  4  5  2  0  0  0
  4  6  1  0  0  0
  6 19  1  0  0  0
 19 20  2  0  0  0
 20 21  1  0  0  0
 21 22  2  0  0  0
 22 23  1  0  0  0
 23 24  2  0  0  0
 24 25  1  0  0  0
 25 26  2  0  0  0
 26 27  1  0  0  0
 27 28  2  0  0  0
  6  7  1  0  0  0
  7  8  1  0  0  0
  8  9  1  0  0  0
  3 10  1  0  0  0
 10 11  2  0  0  0
 11 12  1  0  0  0
 12 13  1  0  0  0
 12 14  2  0  0  0
 14 15  1  0  0  0
 15 16  2  0  0  0
 16 17  1  0  0  0
 17 18  2  0  0  0
 29 30  1  0  0  0
 30 31  1  0  0  0
 31 29  1  0  0  0
 17  1  1  0  0  0
  8  3  1  0  0  0
 16 10  1  0  0  0
 28 19  1  0  0  0
 28 23  1  0  0  0
 33 36  1  0  0  0
M  END
> <minimizedAffinity>
-8.25178

> <CNNscore>
0.3306131065

> <CNNaffinity>
6.3144712448

> <CNN_VS>
2.0876469612

> <CNNaffinity_variance>
0.0889656246

$$$$



 36 41  0  0  0  0  0  0  0  0999 V2000
   -9.4929    2.8879  -24.8346 N   0  0  0  0  0  0  0  0  0  0  0  0
   -8.5298    1.7408  -24.9157 C   0  0  0  0  0  0  0  0  0  0  0  0
   -8.9634    0.3666  -24.4994 C   0  0  0  0  0  0  0  0  0  0  0  0
   -9.2522   -1.0557  -24.1202 C   0  0  0  0  0  0  0  0  0  0  0  0
  -10.1605   -1.7381  -23.6893 O   0  0  0  0  0  0  0  0  0  0  0  0
   -8.0097   -1.8610  -24.3604 N   0  0  0  0  0  0  0  0  0  0  0  0
   -6.9529   -0.9364  -24.8880 C   0  0  0  0  0  0  0  0  0  0  0  0
   -7.5424    0.4403  -24.9739 C   0  0  0  0  0  0  0  0  0  0  0  0
   -6.8349    1.6741  -25.4506 C   0  0  0  0  0  0  0  0  0  0  0  0
  -10.3602    0.1393  -24.0019 C   0  0  0  0  0  0  0  0  0  0  0  0
  -10.7938   -1.2349  -23.5855 C   0  0  0  0  0  0  0  0  0  0  0  0
  -12.1905   -1.4621  -23.0880 C   0  0  0  0  0  0  0  0  0  0  0  0
  -12.6242   -2.8364  -22.6717 Cl  0  0  0  0  0  0  0  0  0  0  0  0
  -13.1536   -0.3150  -23.0069 C   0  0  0  0  0  0  0  0  0  0  0  0
  -12.7200    1.0592  -23.4232 C   0  0  0  0  0  0  0  0  0  0  0  0
  -11.3233    1.2864  -23.9207 C   0  0  0  0  0  0  0  0  0  0  0  0
  -10.8897    2.6607  -24.3371 C   0  0  0  0  0  0  0  0  0  0  0  0
  -11.8528    3.8078  -24.2560 O   0  0  0  0  0  0  0  0  0  0  0  0
   -7.8517   -3.3324  -24.1159 C   0  0  0  0  0  0  0  0  0  0  0  0
   -7.2081   -3.8177  -22.8509 C   0  0  0  0  0  0  0  0  0  0  0  0
   -7.0501   -5.2892  -22.6064 N   0  0  0  0  0  0  0  0  0  0  0  0
   -7.5356   -6.2754  -23.6270 C   0  0  0  0  0  0  0  0  0  0  0  0
   -8.1792   -5.7901  -24.8920 C   0  0  0  0  0  0  0  0  0  0  0  0
   -8.6648   -6.7764  -25.9127 C   0  0  0  0  0  0  0  0  0  0  0  0
   -9.3083   -6.2910  -27.1777 C   0  0  0  0  0  0  0  0  0  0  0  0
   -9.4663   -4.8196  -27.4222 C   0  0  0  0  0  0  0  0  0  0  0  0
   -8.9808   -3.8334  -26.4016 C   0  0  0  0  0  0  0  0  0  0  0  0
   -8.3372   -4.3186  -25.1365 C   0  0  0  0  0  0  0  0  0  0  0  0
   -9.0593    4.2622  -25.2509 C   0  0  0  0  0  0  0  0  0  0  0  0
   -8.7616    5.4402  -26.1304 C   0  0  0  0  0  0  0  0  0  0  0  0
   -9.3001    4.1746  -26.7289 C   0  0  0  0  0  0  0  0  0  0  0  0
   -6.9450    5.0474  -21.9856 C   0  0  0  0  0  0  0  0  0  0  0  0
   -7.3364    4.4827  -23.3190 N   0  0  0  0  0  0  0  0  0  0  0  0
   -8.6680    4.8269  -23.9176 C   0  0  0  0  0  0  0  0  0  0  0  0
   -9.6081    5.7358  -23.1828 O   0  0  0  0  0  0  0  0  0  0  0  0
   -6.7193    3.8862  -23.8012 H   0  0  0  0  0  0  0  0  0  0  0  0
 32 33  1  0  0  0
 33 34  1  0  0  0
 34 35  2  0  0  0
 34 29  1  0  0  0
 29  1  1  0  0  0
  1  2  1  0  0  0
  3  2  1  0  0  0
  3  4  1  0  0  0
  4  5  2  0  0  0
  4  6  1  0  0  0
  6 19  1  0  0  0
 19 20  2  0  0  0
 20 21  1  0  0  0
 21 22  2  0  0  0
 22 23  1  0  0  0
 23 24  2  0  0  0
 24 25  1  0  0  0
 25 26  2  0  0  0
 26 27  1  0  0  0
 27 28  2  0  0  0
  6  7  1  0  0  0
  7  8  1  0  0  0
  8  9  1  0  0  0
  3 10  1  0  0  0
 10 11  2  0  0  0
 11 12  1  0  0  0
 12 13  1  0  0  0
 12 14  2  0  0  0
 14 15  1  0  0  0
 15 16  2  0  0  0
 16 17  1  0  0  0
 17 18  2  0  0  0
 29 30  1  0  0  0
 30 31  1  0  0  0
 31 29  1  0  0  0
 17  1  1  0  0  0
  8  3  1  0  0  0
 16 10  1  0  0  0
 28 19  1  0  0  0
 28 23  1  0  0  0
 33 36  1  0  0  0
M  END
> <minimizedAffinity>
-7.65568

> <CNNscore>
0.2969515920

> <CNNaffinity>
6.2814416885

> <CNN_VS>
1.8652840853

> <CNNaffinity_variance>
0.1473306119

$$$$



 36 41  0  0  0  0  0  0  0  0999 V2000
  -10.3316    3.4374  -24.5818 N   0  0  0  0  0  0  0  0  0  0  0  0
   -9.1272    2.5436  -24.5606 C   0  0  0  0  0  0  0  0  0  0  0  0
   -9.2730    1.0973  -24.1905 C   0  0  0  0  0  0  0  0  0  0  0  0
   -9.2638   -0.3616  -23.8421 C   0  0  0  0  0  0  0  0  0  0  0  0
  -10.0298   -1.2436  -23.5079 O   0  0  0  0  0  0  0  0  0  0  0  0
   -7.8515   -0.8552  -23.9503 N   0  0  0  0  0  0  0  0  0  0  0  0
   -6.9877    0.2988  -24.3654 C   0  0  0  0  0  0  0  0  0  0  0  0
   -7.8663    1.5055  -24.5139 C   0  0  0  0  0  0  0  0  0  0  0  0
   -7.4170    2.8792  -24.9153 C   0  0  0  0  0  0  0  0  0  0  0  0
  -10.6233    0.5449  -23.8415 C   0  0  0  0  0  0  0  0  0  0  0  0
  -10.7690   -0.9014  -23.4714 C   0  0  0  0  0  0  0  0  0  0  0  0
  -12.1192   -1.4538  -23.1224 C   0  0  0  0  0  0  0  0  0  0  0  0
  -12.2651   -2.9001  -22.7523 Cl  0  0  0  0  0  0  0  0  0  0  0  0
  -13.3236   -0.5600  -23.1436 C   0  0  0  0  0  0  0  0  0  0  0  0
  -13.1778    0.8863  -23.5138 C   0  0  0  0  0  0  0  0  0  0  0  0
  -11.8277    1.4387  -23.8627 C   0  0  0  0  0  0  0  0  0  0  0  0
  -11.6818    2.8850  -24.2329 C   0  0  0  0  0  0  0  0  0  0  0  0
  -12.8862    3.7789  -24.2541 O   0  0  0  0  0  0  0  0  0  0  0  0
   -7.3848   -2.2566  -23.6891 C   0  0  0  0  0  0  0  0  0  0  0  0
   -6.7227   -2.5961  -22.3866 C   0  0  0  0  0  0  0  0  0  0  0  0
   -6.2560   -3.9976  -22.1254 N   0  0  0  0  0  0  0  0  0  0  0  0
   -6.4515   -5.0594  -23.1667 C   0  0  0  0  0  0  0  0  0  0  0  0
   -7.1135   -4.7198  -24.4692 C   0  0  0  0  0  0  0  0  0  0  0  0
   -7.3089   -5.7818  -25.5105 C   0  0  0  0  0  0  0  0  0  0  0  0
   -7.9710   -5.4421  -26.8129 C   0  0  0  0  0  0  0  0  0  0  0  0
   -8.4377   -4.0407  -27.0741 C   0  0  0  0  0  0  0  0  0  0  0  0
   -8.2423   -2.9788  -26.0328 C   0  0  0  0  0  0  0  0  0  0  0  0
   -7.5802   -3.3184  -24.7304 C   0  0  0  0  0  0  0  0  0  0  0  0
  -10.1858    4.8838  -24.9520 C   0  0  0  0  0  0  0  0  0  0  0  0
   -9.9446    6.3575  -24.8106 C   0  0  0  0  0  0  0  0  0  0  0  0
   -9.8607    5.4650  -23.6080 C   0  0  0  0  0  0  0  0  0  0  0  0
  -12.1314    4.9145  -28.4108 C   0  0  0  0  0  0  0  0  0  0  0  0
  -11.8569    4.9936  -26.9382 N   0  0  0  0  0  0  0  0  0  0  0  0
  -10.4603    4.8047  -26.4245 C   0  0  0  0  0  0  0  0  0  0  0  0
   -9.3384    4.5366  -27.3833 O   0  0  0  0  0  0  0  0  0  0  0  0
  -12.5933    5.1695  -26.3089 H   0  0  0  0  0  0  0  0  0  0  0  0
 32 33  1  0  0  0
 33 34  1  0  0  0
 34 35  2  0  0  0
 34 29  1  0  0  0
 29  1  1  0  0  0
  1  2  1  0  0  0
  3  2  1  0  0  0
  3  4  1  0  0  0
  4  5  2  0  0  0
  4  6  1  0  0  0
  6 19  1  0  0  0
 19 20  2  0  0  0
 20 21  1  0  0  0
 21 22  2  0  0  0
 22 23  1  0  0  0
 23 24  2  0  0  0
 24 25  1  0  0  0
 25 26  2  0  0  0
 26 27  1  0  0  0
 27 28  2  0  0  0
  6  7  1  0  0  0
  7  8  1  0  0  0
  8  9  1  0  0  0
  3 10  1  0  0  0
 10 11  2  0  0  0
 11 12  1  0  0  0
 12 13  1  0  0  0
 12 14  2  0  0  0
 14 15  1  0  0  0
 15 16  2  0  0  0
 16 17  1  0  0  0
 17 18  2  0  0  0
 29 30  1  0  0  0
 30 31  1  0  0  0
 31 29  1  0  0  0
 17  1  1  0  0  0
  8  3  1  0  0  0
 16 10  1  0  0  0
 28 19  1  0  0  0
 28 23  1  0  0  0
 33 36  1  0  0  0
M  END
> <minimizedAffinity>
-7.52597

> <CNNscore>
0.2800977826

> <CNNaffinity>
6.2500271797

> <CNN_VS>
1.7506186962

> <CNNaffinity_variance>
0.2221151590

$$$$



 36 41  0  0  0  0  0  0  0  0999 V2000
   -6.6883    0.1907  -23.1090 N   0  0  0  0  0  0  0  0  0  0  0  0
   -7.2270    1.5798  -23.2828 C   0  0  0  0  0  0  0  0  0  0  0  0
   -8.6973    1.7938  -23.4886 C   0  0  0  0  0  0  0  0  0  0  0  0
  -10.1358    2.1614  -23.7019 C   0  0  0  0  0  0  0  0  0  0  0  0
  -11.2260    1.6345  -23.8032 O   0  0  0  0  0  0  0  0  0  0  0  0
  -10.2196    3.6540  -23.8248 N   0  0  0  0  0  0  0  0  0  0  0  0
   -8.8328    4.2089  -23.6874 C   0  0  0  0  0  0  0  0  0  0  0  0
   -7.8920    3.0593  -23.4796 C   0  0  0  0  0  0  0  0  0  0  0  0
   -6.4066    3.1578  -23.2952 C   0  0  0  0  0  0  0  0  0  0  0  0
   -9.6290    0.6186  -23.5207 C   0  0  0  0  0  0  0  0  0  0  0  0
  -11.0993    0.8326  -23.7266 C   0  0  0  0  0  0  0  0  0  0  0  0
  -12.0309   -0.3426  -23.7587 C   0  0  0  0  0  0  0  0  0  0  0  0
  -13.5013   -0.1286  -23.9646 Cl  0  0  0  0  0  0  0  0  0  0  0  0
  -11.4922   -1.7317  -23.5849 C   0  0  0  0  0  0  0  0  0  0  0  0
  -10.0220   -1.9456  -23.3791 C   0  0  0  0  0  0  0  0  0  0  0  0
   -9.0903   -0.7705  -23.3470 C   0  0  0  0  0  0  0  0  0  0  0  0
   -7.6200   -0.9844  -23.1411 C   0  0  0  0  0  0  0  0  0  0  0  0
   -7.0813   -2.3736  -22.9673 O   0  0  0  0  0  0  0  0  0  0  0  0
  -11.4705    4.4516  -24.0461 C   0  0  0  0  0  0  0  0  0  0  0  0
  -12.3167    4.8595  -22.8767 C   0  0  0  0  0  0  0  0  0  0  0  0
  -13.5677    5.6571  -23.0980 N   0  0  0  0  0  0  0  0  0  0  0  0
  -13.9724    6.0468  -24.4888 C   0  0  0  0  0  0  0  0  0  0  0  0
  -13.1262    5.6388  -25.6583 C   0  0  0  0  0  0  0  0  0  0  0  0
  -13.5309    6.0286  -27.0491 C   0  0  0  0  0  0  0  0  0  0  0  0
  -12.6847    5.6206  -28.2185 C   0  0  0  0  0  0  0  0  0  0  0  0
  -11.4337    4.8230  -27.9971 C   0  0  0  0  0  0  0  0  0  0  0  0
  -11.0290    4.4333  -26.6064 C   0  0  0  0  0  0  0  0  0  0  0  0
  -11.8752    4.8412  -25.4369 C   0  0  0  0  0  0  0  0  0  0  0  0
   -5.2180   -0.0232  -22.9031 C   0  0  0  0  0  0  0  0  0  0  0  0
   -3.7635   -0.2119  -23.2174 C   0  0  0  0  0  0  0  0  0  0  0  0
   -4.7529   -0.0248  -24.3291 C   0  0  0  0  0  0  0  0  0  0  0  0
   -6.3480   -0.5807  -19.1398 C   0  0  0  0  0  0  0  0  0  0  0  0
   -6.3933   -0.5079  -20.6374 N   0  0  0  0  0  0  0  0  0  0  0  0
   -5.1726   -0.0960  -21.4056 C   0  0  0  0  0  0  0  0  0  0  0  0
   -3.9065    0.2432  -20.6762 O   0  0  0  0  0  0  0  0  0  0  0  0
   -7.2243   -0.7306  -21.1162 H   0  0  0  0  0  0  0  0  0  0  0  0
 32 33  1  0  0  0
 33 34  1  0  0  0
 34 35  2  0  0  0
 34 29  1  0  0  0
 29  1  1  0  0  0
  1  2  1  0  0  0
  3  2  1  0  0  0
  3  4  1  0  0  0
  4  5  2  0  0  0
  4  6  1  0  0  0
  6 19  1  0  0  0
 19 20  2  0  0  0
 20 21  1  0  0  0
 21 22  2  0  0  0
 22 23  1  0  0  0
 23 24  2  0  0  0
 24 25  1  0  0  0
 25 26  2  0  0  0
 26 27  1  0  0  0
 27 28  2  0  0  0
  6  7  1  0  0  0
  7  8  1  0  0  0
  8  9  1  0  0  0
  3 10  1  0  0  0
 10 11  2  0  0  0
 11 12  1  0  0  0
 12 13  1  0  0  0
 12 14  2  0  0  0
 14 15  1  0  0  0
 15 16  2  0  0  0
 16 17  1  0  0  0
 17 18  2  0  0  0
 29 30  1  0  0  0
 30 31  1  0  0  0
 31 29  1  0  0  0
 17  1  1  0  0  0
  8  3  1  0  0  0
 16 10  1  0  0  0
 28 19  1  0  0  0
 28 23  1  0  0  0
 33 36  1  0  0  0
M  END
> <minimizedAffinity>
-7.76909

> <CNNscore>
0.2784490883

> <CNNaffinity>
6.2302994728

> <CNN_VS>
1.7348212004

> <CNNaffinity_variance>
0.1150958762

$$$$



 36 41  0  0  0  0  0  0  0  0999 V2000
   -6.3327    0.5159  -21.1528 N   0  0  0  0  0  0  0  0  0  0  0  0
   -6.6846    1.7379  -21.9485 C   0  0  0  0  0  0  0  0  0  0  0  0
   -7.9561    1.7750  -22.7433 C   0  0  0  0  0  0  0  0  0  0  0  0
   -9.1864    1.9571  -23.5818 C   0  0  0  0  0  0  0  0  0  0  0  0
  -10.1889    1.3525  -23.9073 O   0  0  0  0  0  0  0  0  0  0  0  0
   -9.1301    3.3240  -24.1969 N   0  0  0  0  0  0  0  0  0  0  0  0
   -7.8649    3.9868  -23.7385 C   0  0  0  0  0  0  0  0  0  0  0  0
   -7.1394    3.0294  -22.8401 C   0  0  0  0  0  0  0  0  0  0  0  0
   -5.8274    3.2821  -22.1582 C   0  0  0  0  0  0  0  0  0  0  0  0
   -8.8759    0.5900  -22.7425 C   0  0  0  0  0  0  0  0  0  0  0  0
  -10.1474    0.6271  -23.5373 C   0  0  0  0  0  0  0  0  0  0  0  0
  -11.0672   -0.5579  -23.5365 C   0  0  0  0  0  0  0  0  0  0  0  0
  -12.3388   -0.5209  -24.3313 Cl  0  0  0  0  0  0  0  0  0  0  0  0
  -10.7153   -1.7798  -22.7408 C   0  0  0  0  0  0  0  0  0  0  0  0
   -9.4438   -1.8169  -21.9460 C   0  0  0  0  0  0  0  0  0  0  0  0
   -8.5241   -0.6320  -21.9468 C   0  0  0  0  0  0  0  0  0  0  0  0
   -7.2525   -0.6690  -21.1520 C   0  0  0  0  0  0  0  0  0  0  0  0
   -6.9007   -1.8909  -20.3564 O   0  0  0  0  0  0  0  0  0  0  0  0
  -10.1583    3.9230  -25.1100 C   0  0  0  0  0  0  0  0  0  0  0  0
   -9.9350    3.9234  -26.5933 C   0  0  0  0  0  0  0  0  0  0  0  0
  -10.9633    4.5224  -27.5064 N   0  0  0  0  0  0  0  0  0  0  0  0
  -12.2149    5.1210  -26.9363 C   0  0  0  0  0  0  0  0  0  0  0  0
  -12.4382    5.1207  -25.4530 C   0  0  0  0  0  0  0  0  0  0  0  0
  -13.6899    5.7194  -24.8828 C   0  0  0  0  0  0  0  0  0  0  0  0
  -13.9131    5.7189  -23.3995 C   0  0  0  0  0  0  0  0  0  0  0  0
  -12.8849    5.1199  -22.4864 C   0  0  0  0  0  0  0  0  0  0  0  0
  -11.6333    4.5213  -23.0565 C   0  0  0  0  0  0  0  0  0  0  0  0
  -11.4099    4.5217  -24.5398 C   0  0  0  0  0  0  0  0  0  0  0  0
   -5.0611    0.4789  -20.3580 C   0  0  0  0  0  0  0  0  0  0  0  0
   -4.1375    0.4680  -19.1762 C   0  0  0  0  0  0  0  0  0  0  0  0
   -5.6211    0.5412  -18.9678 C   0  0  0  0  0  0  0  0  0  0  0  0
   -3.4738   -0.1794  -23.9352 C   0  0  0  0  0  0  0  0  0  0  0  0
   -4.4752   -0.1042  -22.8209 N   0  0  0  0  0  0  0  0  0  0  0  0
   -4.0597    0.4038  -21.4722 C   0  0  0  0  0  0  0  0  0  0  0  0
   -2.6428    0.8366  -21.2376 O   0  0  0  0  0  0  0  0  0  0  0  0
   -5.4052   -0.3883  -22.9749 H   0  0  0  0  0  0  0  0  0  0  0  0
 32 33  1  0  0  0
 33 34  1  0  0  0
 34 35  2  0  0  0
 34 29  1  0  0  0
 29  1  1  0  0  0
  1  2  1  0  0  0
  3  2  1  0  0  0
  3  4  1  0  0  0
  4  5  2  0  0  0
  4  6  1  0  0  0
  6 19  1  0  0  0
 19 20  2  0  0  0
 20 21  1  0  0  0
 21 22  2  0  0  0
 22 23  1  0  0  0
 23 24  2  0  0  0
 24 25  1  0  0  0
 25 26  2  0  0  0
 26 27  1  0  0  0
 27 28  2  0  0  0
  6  7  1  0  0  0
  7  8  1  0  0  0
  8  9  1  0  0  0
  3 10  1  0  0  0
 10 11  2  0  0  0
 11 12  1  0  0  0
 12 13  1  0  0  0
 12 14  2  0  0  0
 14 15  1  0  0  0
 15 16  2  0  0  0
 16 17  1  0  0  0
 17 18  2  0  0  0
 29 30  1  0  0  0
 30 31  1  0  0  0
 31 29  1  0  0  0
 17  1  1  0  0  0
  8  3  1  0  0  0
 16 10  1  0  0  0
 28 19  1  0  0  0
 28 23  1  0  0  0
 33 36  1  0  0  0
M  END
> <minimizedAffinity>
-8.28205

> <CNNscore>
0.1948903501

> <CNNaffinity>
5.9191493988

> <CNN_VS>
1.1535850763

> <CNNaffinity_variance>
0.1533361673

$$$$



 36 41  0  0  0  0  0  0  0  0999 V2000
   -6.7731    0.2680  -21.8473 N   0  0  0  0  0  0  0  0  0  0  0  0
   -7.2093    1.6149  -22.3428 C   0  0  0  0  0  0  0  0  0  0  0  0
   -8.6006    1.8056  -22.8700 C   0  0  0  0  0  0  0  0  0  0  0  0
   -9.9529    2.1463  -23.4224 C   0  0  0  0  0  0  0  0  0  0  0  0
  -11.0229    1.6198  -23.6552 O   0  0  0  0  0  0  0  0  0  0  0  0
   -9.9492    3.5996  -23.7939 N   0  0  0  0  0  0  0  0  0  0  0  0
   -8.5946    4.1571  -23.4711 C   0  0  0  0  0  0  0  0  0  0  0  0
   -7.7611    3.0483  -22.9002 C   0  0  0  0  0  0  0  0  0  0  0  0
   -6.3379    3.1623  -22.4401 C   0  0  0  0  0  0  0  0  0  0  0  0
   -9.5557    0.6494  -22.9018 C   0  0  0  0  0  0  0  0  0  0  0  0
  -10.9469    0.8401  -23.4290 C   0  0  0  0  0  0  0  0  0  0  0  0
  -11.9019   -0.3162  -23.4608 C   0  0  0  0  0  0  0  0  0  0  0  0
  -13.2933   -0.1255  -23.9880 Cl  0  0  0  0  0  0  0  0  0  0  0  0
  -11.4657   -1.6631  -22.9653 C   0  0  0  0  0  0  0  0  0  0  0  0
  -10.0744   -1.8538  -22.4380 C   0  0  0  0  0  0  0  0  0  0  0  0
   -9.1194   -0.6976  -22.4063 C   0  0  0  0  0  0  0  0  0  0  0  0
   -7.7281   -0.8882  -21.8790 C   0  0  0  0  0  0  0  0  0  0  0  0
   -7.2919   -2.2351  -21.3835 O   0  0  0  0  0  0  0  0  0  0  0  0
  -11.0984    4.3616  -24.3844 C   0  0  0  0  0  0  0  0  0  0  0  0
  -12.1359    4.9687  -23.4872 C   0  0  0  0  0  0  0  0  0  0  0  0
  -13.2851    5.7307  -24.0778 N   0  0  0  0  0  0  0  0  0  0  0  0
  -13.3967    5.8856  -25.5656 C   0  0  0  0  0  0  0  0  0  0  0  0
  -12.3592    5.2785  -26.4628 C   0  0  0  0  0  0  0  0  0  0  0  0
  -12.4708    5.4334  -27.9506 C   0  0  0  0  0  0  0  0  0  0  0  0
  -11.4333    4.8263  -28.8478 C   0  0  0  0  0  0  0  0  0  0  0  0
  -10.2841    4.0643  -28.2572 C   0  0  0  0  0  0  0  0  0  0  0  0
  -10.1725    3.9094  -26.7694 C   0  0  0  0  0  0  0  0  0  0  0  0
  -11.2100    4.5165  -25.8722 C   0  0  0  0  0  0  0  0  0  0  0  0
   -5.3818    0.0773  -21.3200 C   0  0  0  0  0  0  0  0  0  0  0  0
   -4.2492   -0.0505  -20.3449 C   0  0  0  0  0  0  0  0  0  0  0  0
   -5.6434    0.1920  -19.8475 C   0  0  0  0  0  0  0  0  0  0  0  0
   -2.6675    0.5349  -24.1788 C   0  0  0  0  0  0  0  0  0  0  0  0
   -3.4122    0.7158  -22.8893 N   0  0  0  0  0  0  0  0  0  0  0  0
   -4.6371   -0.1035  -22.6095 C   0  0  0  0  0  0  0  0  0  0  0  0
   -5.1173   -1.1035  -23.6190 O   0  0  0  0  0  0  0  0  0  0  0  0
   -3.0970    1.3721  -22.2267 H   0  0  0  0  0  0  0  0  0  0  0  0
 32 33  1  0  0  0
 33 34  1  0  0  0
 34 35  2  0  0  0
 34 29  1  0  0  0
 29  1  1  0  0  0
  1  2  1  0  0  0
  3  2  1  0  0  0
  3  4  1  0  0  0
  4  5  2  0  0  0
  4  6  1  0  0  0
  6 19  1  0  0  0
 19 20  2  0  0  0
 20 21  1  0  0  0
 21 22  2  0  0  0
 22 23  1  0  0  0
 23 24  2  0  0  0
 24 25  1  0  0  0
 25 26  2  0  0  0
 26 27  1  0  0  0
 27 28  2  0  0  0
  6  7  1  0  0  0
  7  8  1  0  0  0
  8  9  1  0  0  0
  3 10  1  0  0  0
 10 11  2  0  0  0
 11 12  1  0  0  0
 12 13  1  0  0  0
 12 14  2  0  0  0
 14 15  1  0  0  0
 15 16  2  0  0  0
 16 17  1  0  0  0
 17 18  2  0  0  0
 29 30  1  0  0  0
 30 31  1  0  0  0
 31 29  1  0  0  0
 17  1  1  0  0  0
  8  3  1  0  0  0
 16 10  1  0  0  0
 28 19  1  0  0  0
 28 23  1  0  0  0
 33 36  1  0  0  0
M  END
> <minimizedAffinity>
-7.79217

> <CNNscore>
0.1557632983

> <CNNaffinity>
5.9011688232

> <CNN_VS>
0.9191855192

> <CNNaffinity_variance>
0.1605008543

$$$$



 36 41  0  0  0  0  0  0  0  0999 V2000
   -3.8613    2.0368  -23.4174 N   0  0  0  0  0  0  0  0  0  0  0  0
   -5.0959    1.1851  -23.4417 C   0  0  0  0  0  0  0  0  0  0  0  0
   -6.4503    1.8286  -23.4776 C   0  0  0  0  0  0  0  0  0  0  0  0
   -7.8647    2.3269  -23.5141 C   0  0  0  0  0  0  0  0  0  0  0  0
   -8.4828    3.3728  -23.5350 O   0  0  0  0  0  0  0  0  0  0  0  0
   -8.7758    1.1354  -23.5286 N   0  0  0  0  0  0  0  0  0  0  0  0
   -7.9245   -0.0993  -23.5011 C   0  0  0  0  0  0  0  0  0  0  0  0
   -6.4873    0.3291  -23.4696 C   0  0  0  0  0  0  0  0  0  0  0  0
   -5.2963   -0.5821  -23.4359 C   0  0  0  0  0  0  0  0  0  0  0  0
   -6.5703    3.3238  -23.4894 C   0  0  0  0  0  0  0  0  0  0  0  0
   -7.9248    3.9673  -23.5253 C   0  0  0  0  0  0  0  0  0  0  0  0
   -8.0447    5.4624  -23.5371 C   0  0  0  0  0  0  0  0  0  0  0  0
   -9.3992    6.1059  -23.5731 Cl  0  0  0  0  0  0  0  0  0  0  0  0
   -6.8101    6.3140  -23.5129 C   0  0  0  0  0  0  0  0  0  0  0  0
   -5.4557    5.6706  -23.4769 C   0  0  0  0  0  0  0  0  0  0  0  0
   -5.3358    4.1755  -23.4652 C   0  0  0  0  0  0  0  0  0  0  0  0
   -3.9813    3.5319  -23.4292 C   0  0  0  0  0  0  0  0  0  0  0  0
   -2.7467    4.3836  -23.4050 O   0  0  0  0  0  0  0  0  0  0  0  0
  -10.2749    1.1722  -23.5644 C   0  0  0  0  0  0  0  0  0  0  0  0
  -10.9856    2.4434  -23.9236 C   0  0  0  0  0  0  0  0  0  0  0  0
  -12.4847    2.4802  -23.9593 N   0  0  0  0  0  0  0  0  0  0  0  0
  -13.2731    1.2458  -23.6360 C   0  0  0  0  0  0  0  0  0  0  0  0
  -12.5624   -0.0254  -23.2768 C   0  0  0  0  0  0  0  0  0  0  0  0
  -13.3509   -1.2599  -22.9535 C   0  0  0  0  0  0  0  0  0  0  0  0
  -12.6401   -2.5311  -22.5944 C   0  0  0  0  0  0  0  0  0  0  0  0
  -11.1410   -2.5679  -22.5586 C   0  0  0  0  0  0  0  0  0  0  0  0
  -10.3526   -1.3334  -22.8819 C   0  0  0  0  0  0  0  0  0  0  0  0
  -11.0633   -0.0622  -23.2411 C   0  0  0  0  0  0  0  0  0  0  0  0
   -2.5068    1.3933  -23.3815 C   0  0  0  0  0  0  0  0  0  0  0  0
   -1.2262    0.7765  -23.8606 C   0  0  0  0  0  0  0  0  0  0  0  0
   -2.2490    1.2469  -24.8519 C   0  0  0  0  0  0  0  0  0  0  0  0
   -3.2393    1.4332  -19.4813 C   0  0  0  0  0  0  0  0  0  0  0  0
   -3.4517    1.5103  -20.9642 N   0  0  0  0  0  0  0  0  0  0  0  0
   -2.2944    1.3162  -21.8986 C   0  0  0  0  0  0  0  0  0  0  0  0
   -0.9249    1.0451  -21.3502 O   0  0  0  0  0  0  0  0  0  0  0  0
   -4.3505    1.6882  -21.3242 H   0  0  0  0  0  0  0  0  0  0  0  0
 32 33  1  0  0  0
 33 34  1  0  0  0
 34 35  2  0  0  0
 34 29  1  0  0  0
 29  1  1  0  0  0
  1  2  1  0  0  0
  3  2  1  0  0  0
  3  4  1  0  0  0
  4  5  2  0  0  0
  4  6  1  0  0  0
  6 19  1  0  0  0
 19 20  2  0  0  0
 20 21  1  0  0  0
 21 22  2  0  0  0
 22 23  1  0  0  0
 23 24  2  0  0  0
 24 25  1  0  0  0
 25 26  2  0  0  0
 26 27  1  0  0  0
 27 28  2  0  0  0
  6  7  1  0  0  0
  7  8  1  0  0  0
  8  9  1  0  0  0
  3 10  1  0  0  0
 10 11  2  0  0  0
 11 12  1  0  0  0
 12 13  1  0  0  0
 12 14  2  0  0  0
 14 15  1  0  0  0
 15 16  2  0  0  0
 16 17  1  0  0  0
 17 18  2  0  0  0
 29 30  1  0  0  0
 30 31  1  0  0  0
 31 29  1  0  0  0
 17  1  1  0  0  0
  8  3  1  0  0  0
 16 10  1  0  0  0
 28 19  1  0  0  0
 28 23  1  0  0  0
 33 36  1  0  0  0
M  END
> <minimizedAffinity>
-6.90995

> <CNNscore>
0.1540498137

> <CNNaffinity>
5.9485425949

> <CNN_VS>
0.9163718820

> <CNNaffinity_variance>
0.0880415067

$$$$



 36 41  0  0  0  0  0  0  0  0999 V2000
   -8.6730   -3.3081  -24.9034 N   0  0  0  0  0  0  0  0  0  0  0  0
   -7.8179   -2.0814  -24.7851 C   0  0  0  0  0  0  0  0  0  0  0  0
   -8.4175   -0.7925  -24.3063 C   0  0  0  0  0  0  0  0  0  0  0  0
   -8.8744    0.5596  -23.8448 C   0  0  0  0  0  0  0  0  0  0  0  0
   -9.8811    1.1207  -23.4600 O   0  0  0  0  0  0  0  0  0  0  0  0
   -7.6947    1.4852  -23.8821 N   0  0  0  0  0  0  0  0  0  0  0  0
   -6.5086    0.7052  -24.3666 C   0  0  0  0  0  0  0  0  0  0  0  0
   -6.9554   -0.7025  -24.6288 C   0  0  0  0  0  0  0  0  0  0  0  0
   -6.0916   -1.8235  -25.1262 C   0  0  0  0  0  0  0  0  0  0  0  0
   -9.8723   -0.7303  -23.9458 C   0  0  0  0  0  0  0  0  0  0  0  0
  -10.4719    0.5586  -23.4671 C   0  0  0  0  0  0  0  0  0  0  0  0
  -11.9265    0.6207  -23.1066 C   0  0  0  0  0  0  0  0  0  0  0  0
  -12.5262    1.9097  -22.6279 Cl  0  0  0  0  0  0  0  0  0  0  0  0
  -12.7816   -0.6060  -23.2249 C   0  0  0  0  0  0  0  0  0  0  0  0
  -12.1821   -1.8948  -23.7037 C   0  0  0  0  0  0  0  0  0  0  0  0
  -10.7274   -1.9570  -24.0641 C   0  0  0  0  0  0  0  0  0  0  0  0
  -10.1277   -3.2459  -24.5429 C   0  0  0  0  0  0  0  0  0  0  0  0
  -10.9828   -4.4727  -24.6612 O   0  0  0  0  0  0  0  0  0  0  0  0
   -7.7000    2.9362  -23.5016 C   0  0  0  0  0  0  0  0  0  0  0  0
   -6.9181    3.4018  -22.3092 C   0  0  0  0  0  0  0  0  0  0  0  0
   -6.9235    4.8527  -21.9287 N   0  0  0  0  0  0  0  0  0  0  0  0
   -7.7108    5.8380  -22.7406 C   0  0  0  0  0  0  0  0  0  0  0  0
   -8.4928    5.3724  -23.9330 C   0  0  0  0  0  0  0  0  0  0  0  0
   -9.2802    6.3578  -24.7449 C   0  0  0  0  0  0  0  0  0  0  0  0
  -10.0621    5.8921  -25.9372 C   0  0  0  0  0  0  0  0  0  0  0  0
  -10.0567    4.4412  -26.3177 C   0  0  0  0  0  0  0  0  0  0  0  0
   -9.2694    3.4559  -25.5058 C   0  0  0  0  0  0  0  0  0  0  0  0
   -8.4874    3.9215  -24.3134 C   0  0  0  0  0  0  0  0  0  0  0  0
   -8.0734   -4.5970  -25.3821 C   0  0  0  0  0  0  0  0  0  0  0  0
   -7.6100   -5.6745  -26.3172 C   0  0  0  0  0  0  0  0  0  0  0  0
   -8.2575   -4.4360  -26.8620 C   0  0  0  0  0  0  0  0  0  0  0  0
   -7.0192   -7.2868  -22.6612 C   0  0  0  0  0  0  0  0  0  0  0  0
   -7.4115   -6.6782  -23.9749 N   0  0  0  0  0  0  0  0  0  0  0  0
   -7.6811   -5.2056  -24.0685 C   0  0  0  0  0  0  0  0  0  0  0  0
   -7.5584   -4.3416  -22.8484 O   0  0  0  0  0  0  0  0  0  0  0  0
   -7.4920   -7.2452  -24.7756 H   0  0  0  0  0  0  0  0  0  0  0  0
 32 33  1  0  0  0
 33 34  1  0  0  0
 34 35  2  0  0  0
 34 29  1  0  0  0
 29  1  1  0  0  0
  1  2  1  0  0  0
  3  2  1  0  0  0
  3  4  1  0  0  0
  4  5  2  0  0  0
  4  6  1  0  0  0
  6 19  1  0  0  0
 19 20  2  0  0  0
 20 21  1  0  0  0
 21 22  2  0  0  0
 22 23  1  0  0  0
 23 24  2  0  0  0
 24 25  1  0  0  0
 25 26  2  0  0  0
 26 27  1  0  0  0
 27 28  2  0  0  0
  6  7  1  0  0  0
  7  8  1  0  0  0
  8  9  1  0  0  0
  3 10  1  0  0  0
 10 11  2  0  0  0
 11 12  1  0  0  0
 12 13  1  0  0  0
 12 14  2  0  0  0
 14 15  1  0  0  0
 15 16  2  0  0  0
 16 17  1  0  0  0
 17 18  2  0  0  0
 29 30  1  0  0  0
 30 31  1  0  0  0
 31 29  1  0  0  0
 17  1  1  0  0  0
  8  3  1  0  0  0
 16 10  1  0  0  0
 28 19  1  0  0  0
 28 23  1  0  0  0
 33 36  1  0  0  0
M  END
> <minimizedAffinity>
-7.12692

> <CNNscore>
0.1486950517

> <CNNaffinity>
6.0477509499

> <CNN_VS>
0.8992706537

> <CNNaffinity_variance>
0.0959504619

$$$$
