


 32 37  0  0  0  0  0  0  0  0999 V2000
    8.6615    1.2134   21.1892 O   0  0  0  0  0  0  0  0  0  0  0  0
    7.9577    0.1214   21.9391 C   0  0  0  0  0  0  0  0  0  0  0  0
    8.6978   -0.6773   22.9708 N   0  0  0  0  0  0  0  0  0  0  0  0
    7.9942   -1.7693   23.7207 C   0  0  0  0  0  0  0  0  0  0  0  0
    7.9390   -2.9787   22.8352 C   0  0  0  0  0  0  0  0  0  0  0  0
    7.2353   -4.0706   23.5851 N   0  0  0  0  0  0  0  0  0  0  0  0
    6.9990   -3.3135   24.7813 C   0  0  0  0  0  0  0  0  0  0  0  0
    7.6172   -3.1897   23.4203 C   0  0  0  0  0  0  0  0  0  0  0  0
    7.3759   -1.8931   25.0817 C   0  0  0  0  0  0  0  0  0  0  0  0
    7.5559   -4.2890   22.6418 H   0  0  0  0  0  0  0  0  0  0  0  0
    6.9597   -5.4542   23.0755 C   0  0  0  0  0  0  0  0  0  0  0  0
    6.9297   -6.9377   23.2956 C   0  0  0  0  0  0  0  0  0  0  0  0
    6.5124   -6.3672   21.9726 C   0  0  0  0  0  0  0  0  0  0  0  0
    6.5139   -0.1718   21.6574 C   0  0  0  0  0  0  0  0  0  0  0  0
    5.9105    0.2257   20.3429 C   0  0  0  0  0  0  0  0  0  0  0  0
    6.4940   -0.2933   19.0623 C   0  0  0  0  0  0  0  0  0  0  0  0
    5.8905    0.1042   17.7478 N   0  0  0  0  0  0  0  0  0  0  0  0
    4.7036    1.0206   17.7140 C   0  0  0  0  0  0  0  0  0  0  0  0
    4.1200    1.5397   18.9947 C   0  0  0  0  0  0  0  0  0  0  0  0
    2.9331    2.4562   18.9609 C   0  0  0  0  0  0  0  0  0  0  0  0
    2.3496    2.9751   20.2415 C   0  0  0  0  0  0  0  0  0  0  0  0
    2.9530    2.5776   21.5560 C   0  0  0  0  0  0  0  0  0  0  0  0
    4.1400    1.6612   21.5898 C   0  0  0  0  0  0  0  0  0  0  0  0
    4.7235    1.1422   20.3092 C   0  0  0  0  0  0  0  0  0  0  0  0
   10.1417   -0.3841   23.2525 C   0  0  0  0  0  0  0  0  0  0  0  0
   10.8888   -1.1994   24.2659 C   0  0  0  0  0  0  0  0  0  0  0  0
   12.1212   -0.6429   24.9152 C   0  0  0  0  0  0  0  0  0  0  0  0
   12.8683   -1.4583   25.9287 C   0  0  0  0  0  0  0  0  0  0  0  0
   12.3828   -2.8301   26.2929 C   0  0  0  0  0  0  0  0  0  0  0  0
   11.1504   -3.3865   25.6437 C   0  0  0  0  0  0  0  0  0  0  0  0
   10.6651   -4.7582   26.0079 Cl  0  0  0  0  0  0  0  0  0  0  0  0
   10.4034   -2.5711   24.6302 C   0  0  0  0  0  0  0  0  0  0  0  0
  1  2  2  0  0  0
  2 14  1  0  0  0
 14 15  1  0  0  0
 15 16  2  0  0  0
 16 17  1  0  0  0
 17 18  2  0  0  0
 18 19  1  0  0  0
 19 20  2  0  0  0
 20 21  1  0  0  0
 21 22  2  0  0  0
 22 23  1  0  0  0
 23 24  2  0  0  0
  2  3  1  0  0  0
  3 25  1  0  0  0
 25 26  1  0  0  0
 26 27  2  0  0  0
 27 28  1  0  0  0
 28 29  2  0  0  0
 29 30  1  0  0  0
 30 31  1  0  0  0
 30 32  2  0  0  0
  4  3  1  0  0  0
  4  5  1  0  0  0
  5  6  1  0  0  0
  6 11  1  0  0  0
 11 12  1  0  0  0
 12 13  1  0  0  0
  6  7  1  0  0  0
  7  8  1  0  0  0
  7  9  1  0  0  0
 24 15  1  0  0  0
 32 26  1  0  0  0
  8  4  1  0  0  0
 24 19  1  0  0  0
  9  4  1  0  0  0
 13 11  1  0  0  0
  6 10  1  0  0  0
M  CHG 1   6   1
M  END
> <minimizedAffinity>
-8.65654

> <CNNscore>
0.8046122789

> <CNNaffinity>
6.8666296005

> <CNN_VS>
5.5249743462

> <CNNaffinity_variance>
0.0060728332

$$$$



 32 37  0  0  0  0  0  0  0  0999 V2000
    8.0791    1.2105   21.7367 O   0  0  0  0  0  0  0  0  0  0  0  0
    7.3806    0.0155   22.3147 C   0  0  0  0  0  0  0  0  0  0  0  0
    7.8746   -0.5969   23.5918 N   0  0  0  0  0  0  0  0  0  0  0  0
    7.1762   -1.7919   24.1699 C   0  0  0  0  0  0  0  0  0  0  0  0
    7.5623   -2.9924   23.3577 C   0  0  0  0  0  0  0  0  0  0  0  0
    6.8639   -4.1873   23.9358 N   0  0  0  0  0  0  0  0  0  0  0  0
    6.1884   -3.4818   24.9875 C   0  0  0  0  0  0  0  0  0  0  0  0
    7.1298   -3.2549   23.8420 C   0  0  0  0  0  0  0  0  0  0  0  0
    6.2347   -2.0189   25.3154 C   0  0  0  0  0  0  0  0  0  0  0  0
    7.4630   -4.3480   23.1261 H   0  0  0  0  0  0  0  0  0  0  0  0
    6.9654   -5.5968   23.4327 C   0  0  0  0  0  0  0  0  0  0  0  0
    7.2651   -7.0457   23.6794 C   0  0  0  0  0  0  0  0  0  0  0  0
    6.8416   -6.5891   22.3147 C   0  0  0  0  0  0  0  0  0  0  0  0
    6.1882   -0.5671   21.6157 C   0  0  0  0  0  0  0  0  0  0  0  0
    5.7282    0.0102   20.3099 C   0  0  0  0  0  0  0  0  0  0  0  0
    6.4793   -0.2963   19.0483 C   0  0  0  0  0  0  0  0  0  0  0  0
    6.0193    0.2810   17.7425 N   0  0  0  0  0  0  0  0  0  0  0  0
    4.8081    1.1647   17.6983 C   0  0  0  0  0  0  0  0  0  0  0  0
    4.0569    1.4712   18.9600 C   0  0  0  0  0  0  0  0  0  0  0  0
    2.8457    2.3550   18.9159 C   0  0  0  0  0  0  0  0  0  0  0  0
    2.0946    2.6614   20.1775 C   0  0  0  0  0  0  0  0  0  0  0  0
    2.5546    2.0841   21.4833 C   0  0  0  0  0  0  0  0  0  0  0  0
    3.7658    1.2004   21.5275 C   0  0  0  0  0  0  0  0  0  0  0  0
    4.5169    0.8939   20.2658 C   0  0  0  0  0  0  0  0  0  0  0  0
    9.0671   -0.0143   24.2909 C   0  0  0  0  0  0  0  0  0  0  0  0
   10.4150   -0.6534   24.1336 C   0  0  0  0  0  0  0  0  0  0  0  0
   11.0773   -0.6857   22.7881 C   0  0  0  0  0  0  0  0  0  0  0  0
   12.4252   -1.3249   22.6308 C   0  0  0  0  0  0  0  0  0  0  0  0
   13.1107   -1.9317   23.8191 C   0  0  0  0  0  0  0  0  0  0  0  0
   12.4484   -1.8993   25.1645 C   0  0  0  0  0  0  0  0  0  0  0  0
   13.1340   -2.5061   26.3527 Cl  0  0  0  0  0  0  0  0  0  0  0  0
   11.1005   -1.2602   25.3218 C   0  0  0  0  0  0  0  0  0  0  0  0
  1  2  2  0  0  0
  2 14  1  0  0  0
 14 15  1  0  0  0
 15 16  2  0  0  0
 16 17  1  0  0  0
 17 18  2  0  0  0
 18 19  1  0  0  0
 19 20  2  0  0  0
 20 21  1  0  0  0
 21 22  2  0  0  0
 22 23  1  0  0  0
 23 24  2  0  0  0
  2  3  1  0  0  0
  3 25  1  0  0  0
 25 26  1  0  0  0
 26 27  2  0  0  0
 27 28  1  0  0  0
 28 29  2  0  0  0
 29 30  1  0  0  0
 30 31  1  0  0  0
 30 32  2  0  0  0
  4  3  1  0  0  0
  4  5  1  0  0  0
  5  6  1  0  0  0
  6 11  1  0  0  0
 11 12  1  0  0  0
 12 13  1  0  0  0
  6  7  1  0  0  0
  7  8  1  0  0  0
  7  9  1  0  0  0
 24 15  1  0  0  0
 32 26  1  0  0  0
  8  4  1  0  0  0
 24 19  1  0  0  0
  9  4  1  0  0  0
 13 11  1  0  0  0
  6 10  1  0  0  0
M  CHG 1   6   1
M  END
> <minimizedAffinity>
-8.35995

> <CNNscore>
0.7361072302

> <CNNaffinity>
6.7300591469

> <CNN_VS>
4.9540452957

> <CNNaffinity_variance>
0.1770073473

$$$$



 32 37  0  0  0  0  0  0  0  0999 V2000
    8.5714   -2.0233   21.6575 O   0  0  0  0  0  0  0  0  0  0  0  0
    8.8210   -0.5719   21.9425 C   0  0  0  0  0  0  0  0  0  0  0  0
   10.1956   -0.1080   22.3237 N   0  0  0  0  0  0  0  0  0  0  0  0
   10.4453    1.3433   22.6087 C   0  0  0  0  0  0  0  0  0  0  0  0
    9.1220    1.9980   22.8738 C   0  0  0  0  0  0  0  0  0  0  0  0
    9.3716    3.4493   23.1589 N   0  0  0  0  0  0  0  0  0  0  0  0
   10.7983    3.3958   23.0119 C   0  0  0  0  0  0  0  0  0  0  0  0
    9.5806    2.5229   22.9419 C   0  0  0  0  0  0  0  0  0  0  0  0
   11.6630    2.2163   22.6787 C   0  0  0  0  0  0  0  0  0  0  0  0
    8.4023    3.1325   23.1836 H   0  0  0  0  0  0  0  0  0  0  0  0
    8.3270    4.4777   23.4770 C   0  0  0  0  0  0  0  0  0  0  0  0
    6.9718    4.8294   24.0151 C   0  0  0  0  0  0  0  0  0  0  0  0
    7.8731    5.9073   23.4899 C   0  0  0  0  0  0  0  0  0  0  0  0
    7.6960    0.4155   21.8465 C   0  0  0  0  0  0  0  0  0  0  0  0
    6.8422    0.4622   20.6141 C   0  0  0  0  0  0  0  0  0  0  0  0
    7.1711   -0.4118   19.4402 C   0  0  0  0  0  0  0  0  0  0  0  0
    6.3173   -0.3651   18.2078 N   0  0  0  0  0  0  0  0  0  0  0  0
    5.1346    0.5556   18.1493 C   0  0  0  0  0  0  0  0  0  0  0  0
    4.8056    1.4296   19.3231 C   0  0  0  0  0  0  0  0  0  0  0  0
    3.6228    2.3503   19.2646 C   0  0  0  0  0  0  0  0  0  0  0  0
    3.2939    3.2242   20.4384 C   0  0  0  0  0  0  0  0  0  0  0  0
    4.1477    3.1776   21.6708 C   0  0  0  0  0  0  0  0  0  0  0  0
    5.3305    2.2569   21.7294 C   0  0  0  0  0  0  0  0  0  0  0  0
    5.6594    1.3829   20.5555 C   0  0  0  0  0  0  0  0  0  0  0  0
   11.3207   -1.0956   22.4197 C   0  0  0  0  0  0  0  0  0  0  0  0
   11.7194   -1.6506   23.7550 C   0  0  0  0  0  0  0  0  0  0  0  0
   13.0364   -1.2685   24.3630 C   0  0  0  0  0  0  0  0  0  0  0  0
   13.4352   -1.8235   25.6983 C   0  0  0  0  0  0  0  0  0  0  0  0
   12.5170   -2.7607   26.4255 C   0  0  0  0  0  0  0  0  0  0  0  0
   11.2001   -3.1428   25.8174 C   0  0  0  0  0  0  0  0  0  0  0  0
   10.2820   -4.0799   26.5446 Cl  0  0  0  0  0  0  0  0  0  0  0  0
   10.8013   -2.5877   24.4821 C   0  0  0  0  0  0  0  0  0  0  0  0
  1  2  2  0  0  0
  2 14  1  0  0  0
 14 15  1  0  0  0
 15 16  2  0  0  0
 16 17  1  0  0  0
 17 18  2  0  0  0
 18 19  1  0  0  0
 19 20  2  0  0  0
 20 21  1  0  0  0
 21 22  2  0  0  0
 22 23  1  0  0  0
 23 24  2  0  0  0
  2  3  1  0  0  0
  3 25  1  0  0  0
 25 26  1  0  0  0
 26 27  2  0  0  0
 27 28  1  0  0  0
 28 29  2  0  0  0
 29 30  1  0  0  0
 30 31  1  0  0  0
 30 32  2  0  0  0
  4  3  1  0  0  0
  4  5  1  0  0  0
  5  6  1  0  0  0
  6 11  1  0  0  0
 11 12  1  0  0  0
 12 13  1  0  0  0
  6  7  1  0  0  0
  7  8  1  0  0  0
  7  9  1  0  0  0
 24 15  1  0  0  0
 32 26  1  0  0  0
  8  4  1  0  0  0
 24 19  1  0  0  0
  9  4  1  0  0  0
 13 11  1  0  0  0
  6 10  1  0  0  0
M  CHG 1   6   1
M  END
> <minimizedAffinity>
-8.55129

> <CNNscore>
0.6699283123

> <CNNaffinity>
6.7944364548

> <CNN_VS>
4.5517854691

> <CNNaffinity_variance>
0.1229175180

$$$$



 32 37  0  0  0  0  0  0  0  0999 V2000
    8.6432    1.8362   21.0964 O   0  0  0  0  0  0  0  0  0  0  0  0
    7.9652    0.9676   22.1142 C   0  0  0  0  0  0  0  0  0  0  0  0
    8.6946    0.5643   23.3613 N   0  0  0  0  0  0  0  0  0  0  0  0
    8.0167   -0.3043   24.3790 C   0  0  0  0  0  0  0  0  0  0  0  0
    9.0433   -1.2369   24.9502 C   0  0  0  0  0  0  0  0  0  0  0  0
    8.3653   -2.1055   25.9680 N   0  0  0  0  0  0  0  0  0  0  0  0
    7.0579   -1.5327   25.8184 C   0  0  0  0  0  0  0  0  0  0  0  0
    8.4563   -1.4123   25.2896 C   0  0  0  0  0  0  0  0  0  0  0  0
    6.6182   -0.4247   24.9079 C   0  0  0  0  0  0  0  0  0  0  0  0
    9.3622   -2.2604   25.8173 H   0  0  0  0  0  0  0  0  0  0  0  0
    9.0184   -3.1810   26.7845 C   0  0  0  0  0  0  0  0  0  0  0  0
   10.1025   -4.2031   26.9575 C   0  0  0  0  0  0  0  0  0  0  0  0
    9.0653   -4.0217   28.0259 C   0  0  0  0  0  0  0  0  0  0  0  0
    6.5578    0.5023   21.8849 C   0  0  0  0  0  0  0  0  0  0  0  0
    5.9223    0.6712   20.5367 C   0  0  0  0  0  0  0  0  0  0  0  0
    6.5065   -0.0197   19.3403 C   0  0  0  0  0  0  0  0  0  0  0  0
    5.8710    0.1492   17.9921 N   0  0  0  0  0  0  0  0  0  0  0  0
    4.6513    1.0090   17.8403 C   0  0  0  0  0  0  0  0  0  0  0  0
    4.0670    1.7000   19.0367 C   0  0  0  0  0  0  0  0  0  0  0  0
    2.8474    2.5598   18.8849 C   0  0  0  0  0  0  0  0  0  0  0  0
    2.2632    3.2506   20.0812 C   0  0  0  0  0  0  0  0  0  0  0  0
    2.8987    3.0817   21.4294 C   0  0  0  0  0  0  0  0  0  0  0  0
    4.1183    2.2220   21.5813 C   0  0  0  0  0  0  0  0  0  0  0  0
    4.7025    1.5311   20.3849 C   0  0  0  0  0  0  0  0  0  0  0  0
   10.1021    1.0296   23.5906 C   0  0  0  0  0  0  0  0  0  0  0  0
   11.2407    0.0597   23.4766 C   0  0  0  0  0  0  0  0  0  0  0  0
   11.6736   -0.4334   22.1276 C   0  0  0  0  0  0  0  0  0  0  0  0
   12.8122   -1.4033   22.0136 C   0  0  0  0  0  0  0  0  0  0  0  0
   13.5177   -1.8801   23.2485 C   0  0  0  0  0  0  0  0  0  0  0  0
   13.0847   -1.3871   24.5973 C   0  0  0  0  0  0  0  0  0  0  0  0
   13.7903   -1.8639   25.8321 Cl  0  0  0  0  0  0  0  0  0  0  0  0
   11.9462   -0.4172   24.7114 C   0  0  0  0  0  0  0  0  0  0  0  0
  1  2  2  0  0  0
  2 14  1  0  0  0
 14 15  1  0  0  0
 15 16  2  0  0  0
 16 17  1  0  0  0
 17 18  2  0  0  0
 18 19  1  0  0  0
 19 20  2  0  0  0
 20 21  1  0  0  0
 21 22  2  0  0  0
 22 23  1  0  0  0
 23 24  2  0  0  0
  2  3  1  0  0  0
  3 25  1  0  0  0
 25 26  1  0  0  0
 26 27  2  0  0  0
 27 28  1  0  0  0
 28 29  2  0  0  0
 29 30  1  0  0  0
 30 31  1  0  0  0
 30 32  2  0  0  0
  4  3  1  0  0  0
  4  5  1  0  0  0
  5  6  1  0  0  0
  6 11  1  0  0  0
 11 12  1  0  0  0
 12 13  1  0  0  0
  6  7  1  0  0  0
  7  8  1  0  0  0
  7  9  1  0  0  0
 24 15  1  0  0  0
 32 26  1  0  0  0
  8  4  1  0  0  0
 24 19  1  0  0  0
  9  4  1  0  0  0
 13 11  1  0  0  0
  6 10  1  0  0  0
M  CHG 1   6   1
M  END
> <minimizedAffinity>
-7.66209

> <CNNscore>
0.6569061279

> <CNNaffinity>
6.6265854836

> <CNN_VS>
4.3530445099

> <CNNaffinity_variance>
0.0329946354

$$$$



 32 37  0  0  0  0  0  0  0  0999 V2000
    7.3281    1.3066   22.3341 O   0  0  0  0  0  0  0  0  0  0  0  0
    7.0186   -0.1528   22.4907 C   0  0  0  0  0  0  0  0  0  0  0  0
    7.7285   -0.9620   23.5353 N   0  0  0  0  0  0  0  0  0  0  0  0
    7.4192   -2.4214   23.6920 C   0  0  0  0  0  0  0  0  0  0  0  0
    6.4235   -2.5673   24.8043 C   0  0  0  0  0  0  0  0  0  0  0  0
    6.1141   -4.0267   24.9610 N   0  0  0  0  0  0  0  0  0  0  0  0
    6.9816   -4.4852   23.9136 C   0  0  0  0  0  0  0  0  0  0  0  0
    6.5312   -3.2266   24.5938 C   0  0  0  0  0  0  0  0  0  0  0  0
    7.8696   -3.6801   23.0117 C   0  0  0  0  0  0  0  0  0  0  0  0
    5.6363   -3.3818   25.5904 H   0  0  0  0  0  0  0  0  0  0  0  0
    5.1667   -4.6250   25.9582 C   0  0  0  0  0  0  0  0  0  0  0  0
    4.3331   -5.7806   26.4268 C   0  0  0  0  0  0  0  0  0  0  0  0
    4.3592   -4.5057   27.2166 C   0  0  0  0  0  0  0  0  0  0  0  0
    5.9993   -0.8028   21.6028 C   0  0  0  0  0  0  0  0  0  0  0  0
    5.6086   -0.1530   20.3086 C   0  0  0  0  0  0  0  0  0  0  0  0
    6.3745   -0.4574   19.0553 C   0  0  0  0  0  0  0  0  0  0  0  0
    5.9837    0.1925   17.7611 N   0  0  0  0  0  0  0  0  0  0  0  0
    4.8271    1.1466   17.7201 C   0  0  0  0  0  0  0  0  0  0  0  0
    4.0611    1.4510   18.9734 C   0  0  0  0  0  0  0  0  0  0  0  0
    2.9044    2.4051   18.9325 C   0  0  0  0  0  0  0  0  0  0  0  0
    2.1386    2.7095   20.1857 C   0  0  0  0  0  0  0  0  0  0  0  0
    2.5293    2.0596   21.4800 C   0  0  0  0  0  0  0  0  0  0  0  0
    3.6860    1.1055   21.5209 C   0  0  0  0  0  0  0  0  0  0  0  0
    4.4518    0.8012   20.2677 C   0  0  0  0  0  0  0  0  0  0  0  0
    8.7479   -0.3119   24.4232 C   0  0  0  0  0  0  0  0  0  0  0  0
   10.1831   -0.7432   24.3584 C   0  0  0  0  0  0  0  0  0  0  0  0
   10.8937   -1.1746   25.6070 C   0  0  0  0  0  0  0  0  0  0  0  0
   12.3289   -1.6059   25.5422 C   0  0  0  0  0  0  0  0  0  0  0  0
   13.0535   -1.6058   24.2287 C   0  0  0  0  0  0  0  0  0  0  0  0
   12.3429   -1.1744   22.9802 C   0  0  0  0  0  0  0  0  0  0  0  0
   13.0674   -1.1742   21.6669 Cl  0  0  0  0  0  0  0  0  0  0  0  0
   10.9077   -0.7431   23.0450 C   0  0  0  0  0  0  0  0  0  0  0  0
  1  2  2  0  0  0
  2 14  1  0  0  0
 14 15  1  0  0  0
 15 16  2  0  0  0
 16 17  1  0  0  0
 17 18  2  0  0  0
 18 19  1  0  0  0
 19 20  2  0  0  0
 20 21  1  0  0  0
 21 22  2  0  0  0
 22 23  1  0  0  0
 23 24  2  0  0  0
  2  3  1  0  0  0
  3 25  1  0  0  0
 25 26  1  0  0  0
 26 27  2  0  0  0
 27 28  1  0  0  0
 28 29  2  0  0  0
 29 30  1  0  0  0
 30 31  1  0  0  0
 30 32  2  0  0  0
  4  3  1  0  0  0
  4  5  1  0  0  0
  5  6  1  0  0  0
  6 11  1  0  0  0
 11 12  1  0  0  0
 12 13  1  0  0  0
  6  7  1  0  0  0
  7  8  1  0  0  0
  7  9  1  0  0  0
 24 15  1  0  0  0
 32 26  1  0  0  0
  8  4  1  0  0  0
 24 19  1  0  0  0
  9  4  1  0  0  0
 13 11  1  0  0  0
  6 10  1  0  0  0
M  CHG 1   6   1
M  END
> <minimizedAffinity>
-7.68180

> <CNNscore>
0.6380579472

> <CNNaffinity>
6.5304059982

> <CNN_VS>
4.1667776108

> <CNNaffinity_variance>
0.0540769473

$$$$



 32 37  0  0  0  0  0  0  0  0999 V2000
    8.4489   -1.5989   21.8950 O   0  0  0  0  0  0  0  0  0  0  0  0
    9.5398   -0.6259   22.2316 C   0  0  0  0  0  0  0  0  0  0  0  0
    9.2018    0.8024   22.5407 N   0  0  0  0  0  0  0  0  0  0  0  0
   10.2926    1.7754   22.8772 C   0  0  0  0  0  0  0  0  0  0  0  0
    9.7671    3.1605   22.6424 C   0  0  0  0  0  0  0  0  0  0  0  0
   10.8580    4.1335   22.9790 N   0  0  0  0  0  0  0  0  0  0  0  0
   11.8354    3.1514   23.3533 C   0  0  0  0  0  0  0  0  0  0  0  0
   10.4227    3.2697   22.8633 C   0  0  0  0  0  0  0  0  0  0  0  0
   11.7054    1.6571   23.3672 C   0  0  0  0  0  0  0  0  0  0  0  0
    9.9716    4.5240   22.6592 H   0  0  0  0  0  0  0  0  0  0  0  0
   10.7653    5.6279   22.8886 C   0  0  0  0  0  0  0  0  0  0  0  0
   10.2143    6.9282   23.3941 C   0  0  0  0  0  0  0  0  0  0  0  0
   11.1560    6.9160   22.2266 C   0  0  0  0  0  0  0  0  0  0  0  0
   10.9687   -1.0813   22.2592 C   0  0  0  0  0  0  0  0  0  0  0  0
   11.5924   -1.5166   23.5521 C   0  0  0  0  0  0  0  0  0  0  0  0
   12.9665   -1.0407   23.9196 C   0  0  0  0  0  0  0  0  0  0  0  0
   13.5902   -1.4760   25.2125 N   0  0  0  0  0  0  0  0  0  0  0  0
   12.8397   -2.3873   26.1379 C   0  0  0  0  0  0  0  0  0  0  0  0
   11.4654   -2.8632   25.7704 C   0  0  0  0  0  0  0  0  0  0  0  0
   10.7149   -3.7745   26.6957 C   0  0  0  0  0  0  0  0  0  0  0  0
    9.3408   -4.2504   26.3282 C   0  0  0  0  0  0  0  0  0  0  0  0
    8.7171   -3.8151   25.0353 C   0  0  0  0  0  0  0  0  0  0  0  0
    9.4676   -2.9039   24.1099 C   0  0  0  0  0  0  0  0  0  0  0  0
   10.8418   -2.4279   24.4775 C   0  0  0  0  0  0  0  0  0  0  0  0
    7.7728    1.2578   22.5131 C   0  0  0  0  0  0  0  0  0  0  0  0
    6.8756    0.9838   23.6835 C   0  0  0  0  0  0  0  0  0  0  0  0
    5.5828    0.2501   23.4819 C   0  0  0  0  0  0  0  0  0  0  0  0
    4.6856   -0.0239   24.6523 C   0  0  0  0  0  0  0  0  0  0  0  0
    5.0812    0.4356   26.0244 C   0  0  0  0  0  0  0  0  0  0  0  0
    6.3739    1.1692   26.2259 C   0  0  0  0  0  0  0  0  0  0  0  0
    6.7695    1.6286   27.5979 Cl  0  0  0  0  0  0  0  0  0  0  0  0
    7.2711    1.4432   25.0555 C   0  0  0  0  0  0  0  0  0  0  0  0
  1  2  2  0  0  0
  2 14  1  0  0  0
 14 15  1  0  0  0
 15 16  2  0  0  0
 16 17  1  0  0  0
 17 18  2  0  0  0
 18 19  1  0  0  0
 19 20  2  0  0  0
 20 21  1  0  0  0
 21 22  2  0  0  0
 22 23  1  0  0  0
 23 24  2  0  0  0
  2  3  1  0  0  0
  3 25  1  0  0  0
 25 26  1  0  0  0
 26 27  2  0  0  0
 27 28  1  0  0  0
 28 29  2  0  0  0
 29 30  1  0  0  0
 30 31  1  0  0  0
 30 32  2  0  0  0
  4  3  1  0  0  0
  4  5  1  0  0  0
  5  6  1  0  0  0
  6 11  1  0  0  0
 11 12  1  0  0  0
 12 13  1  0  0  0
  6  7  1  0  0  0
  7  8  1  0  0  0
  7  9  1  0  0  0
 24 15  1  0  0  0
 32 26  1  0  0  0
  8  4  1  0  0  0
 24 19  1  0  0  0
  9  4  1  0  0  0
 13 11  1  0  0  0
  6 10  1  0  0  0
M  CHG 1   6   1
M  END
> <minimizedAffinity>
-7.64694

> <CNNscore>
0.6274894476

> <CNNaffinity>
6.7557129860

> <CNN_VS>
4.2391386032

> <CNNaffinity_variance>
0.2066141814

$$$$



 32 37  0  0  0  0  0  0  0  0999 V2000
    8.5820   -2.2855   22.3114 O   0  0  0  0  0  0  0  0  0  0  0  0
    9.6018   -1.2048   22.5169 C   0  0  0  0  0  0  0  0  0  0  0  0
    9.1604    0.2154   22.7130 N   0  0  0  0  0  0  0  0  0  0  0  0
   10.1802    1.2960   22.9185 C   0  0  0  0  0  0  0  0  0  0  0  0
    9.4799    2.6189   22.8204 C   0  0  0  0  0  0  0  0  0  0  0  0
   10.4996    3.6996   23.0259 N   0  0  0  0  0  0  0  0  0  0  0  0
   11.6223    2.8244   23.2092 C   0  0  0  0  0  0  0  0  0  0  0  0
   10.1463    2.7955   22.9437 C   0  0  0  0  0  0  0  0  0  0  0  0
   11.6562    1.3250   23.1841 C   0  0  0  0  0  0  0  0  0  0  0  0
    9.5379    3.9959   22.8594 H   0  0  0  0  0  0  0  0  0  0  0  0
   10.2352    5.1760   23.0092 C   0  0  0  0  0  0  0  0  0  0  0  0
    9.2773    6.3254   23.1148 C   0  0  0  0  0  0  0  0  0  0  0  0
   10.7353    6.5838   22.8746 C   0  0  0  0  0  0  0  0  0  0  0  0
   11.0628   -1.5443   22.5264 C   0  0  0  0  0  0  0  0  0  0  0  0
   11.7167   -2.0086   23.7940 C   0  0  0  0  0  0  0  0  0  0  0  0
   13.2000   -1.8685   23.9677 C   0  0  0  0  0  0  0  0  0  0  0  0
   13.8539   -2.3329   25.2353 N   0  0  0  0  0  0  0  0  0  0  0  0
   13.0245   -2.9373   26.3292 C   0  0  0  0  0  0  0  0  0  0  0  0
   11.5411   -3.0774   26.1555 C   0  0  0  0  0  0  0  0  0  0  0  0
   10.7118   -3.6819   27.2495 C   0  0  0  0  0  0  0  0  0  0  0  0
    9.2285   -3.8220   27.0758 C   0  0  0  0  0  0  0  0  0  0  0  0
    8.5746   -3.3576   25.8082 C   0  0  0  0  0  0  0  0  0  0  0  0
    9.4039   -2.7532   24.7143 C   0  0  0  0  0  0  0  0  0  0  0  0
   10.8872   -2.6131   24.8880 C   0  0  0  0  0  0  0  0  0  0  0  0
    7.6993    0.5548   22.7035 C   0  0  0  0  0  0  0  0  0  0  0  0
    6.9446    0.5840   21.4076 C   0  0  0  0  0  0  0  0  0  0  0  0
    7.4749   -0.1538   20.2140 C   0  0  0  0  0  0  0  0  0  0  0  0
    6.7201   -0.1247   18.9181 C   0  0  0  0  0  0  0  0  0  0  0  0
    5.4350    0.6423   18.8157 C   0  0  0  0  0  0  0  0  0  0  0  0
    4.9048    1.3801   20.0092 C   0  0  0  0  0  0  0  0  0  0  0  0
    3.6198    2.1470   19.9068 Cl  0  0  0  0  0  0  0  0  0  0  0  0
    5.6595    1.3509   21.3052 C   0  0  0  0  0  0  0  0  0  0  0  0
  1  2  2  0  0  0
  2 14  1  0  0  0
 14 15  1  0  0  0
 15 16  2  0  0  0
 16 17  1  0  0  0
 17 18  2  0  0  0
 18 19  1  0  0  0
 19 20  2  0  0  0
 20 21  1  0  0  0
 21 22  2  0  0  0
 22 23  1  0  0  0
 23 24  2  0  0  0
  2  3  1  0  0  0
  3 25  1  0  0  0
 25 26  1  0  0  0
 26 27  2  0  0  0
 27 28  1  0  0  0
 28 29  2  0  0  0
 29 30  1  0  0  0
 30 31  1  0  0  0
 30 32  2  0  0  0
  4  3  1  0  0  0
  4  5  1  0  0  0
  5  6  1  0  0  0
  6 11  1  0  0  0
 11 12  1  0  0  0
 12 13  1  0  0  0
  6  7  1  0  0  0
  7  8  1  0  0  0
  7  9  1  0  0  0
 24 15  1  0  0  0
 32 26  1  0  0  0
  8  4  1  0  0  0
 24 19  1  0  0  0
  9  4  1  0  0  0
 13 11  1  0  0  0
  6 10  1  0  0  0
M  CHG 1   6   1
M  END
> <minimizedAffinity>
-8.67611

> <CNNscore>
0.5811368823

> <CNNaffinity>
6.7760457993

> <CNN_VS>
3.9378101826

> <CNNaffinity_variance>
0.1341351122

$$$$



 32 37  0  0  0  0  0  0  0  0999 V2000
    7.1140   -1.2049   22.6317 O   0  0  0  0  0  0  0  0  0  0  0  0
    8.4134   -0.4731   22.7939 C   0  0  0  0  0  0  0  0  0  0  0  0
    8.4266    1.0251   22.8650 N   0  0  0  0  0  0  0  0  0  0  0  0
    9.7259    1.7568   23.0271 C   0  0  0  0  0  0  0  0  0  0  0  0
    9.4745    3.2119   22.7636 C   0  0  0  0  0  0  0  0  0  0  0  0
   10.7738    3.9436   22.9257 N   0  0  0  0  0  0  0  0  0  0  0  0
   11.5634    2.7917   23.2564 C   0  0  0  0  0  0  0  0  0  0  0  0
   10.1592    3.1880   22.9086 C   0  0  0  0  0  0  0  0  0  0  0  0
   11.1301    1.3605   23.3750 C   0  0  0  0  0  0  0  0  0  0  0  0
    9.9567    4.5007   22.6759 H   0  0  0  0  0  0  0  0  0  0  0  0
   10.9821    5.4192   22.7542 C   0  0  0  0  0  0  0  0  0  0  0  0
   11.6826    6.5628   22.0823 C   0  0  0  0  0  0  0  0  0  0  0  0
   10.6424    6.8313   23.1292 C   0  0  0  0  0  0  0  0  0  0  0  0
    9.6995   -1.2397   22.8849 C   0  0  0  0  0  0  0  0  0  0  0  0
    9.8387   -2.3560   23.8771 C   0  0  0  0  0  0  0  0  0  0  0  0
    8.7454   -3.3730   24.0201 C   0  0  0  0  0  0  0  0  0  0  0  0
    8.8846   -4.4893   25.0123 N   0  0  0  0  0  0  0  0  0  0  0  0
   10.1171   -4.5886   25.8615 C   0  0  0  0  0  0  0  0  0  0  0  0
   11.2104   -3.5715   25.7185 C   0  0  0  0  0  0  0  0  0  0  0  0
   12.4428   -3.6708   26.5677 C   0  0  0  0  0  0  0  0  0  0  0  0
   13.5361   -2.6538   26.4247 C   0  0  0  0  0  0  0  0  0  0  0  0
   13.3969   -1.5375   25.4325 C   0  0  0  0  0  0  0  0  0  0  0  0
   12.1644   -1.4382   24.5833 C   0  0  0  0  0  0  0  0  0  0  0  0
   11.0712   -2.4552   24.7263 C   0  0  0  0  0  0  0  0  0  0  0  0
    7.1404    1.7916   22.7740 C   0  0  0  0  0  0  0  0  0  0  0  0
    6.3741    2.1215   24.0206 C   0  0  0  0  0  0  0  0  0  0  0  0
    5.0796    2.8739   23.9282 C   0  0  0  0  0  0  0  0  0  0  0  0
    4.3133    3.2037   25.1748 C   0  0  0  0  0  0  0  0  0  0  0  0
    4.8415    2.7813   26.5138 C   0  0  0  0  0  0  0  0  0  0  0  0
    6.1359    2.0289   26.6060 C   0  0  0  0  0  0  0  0  0  0  0  0
    6.6640    1.6065   27.9449 Cl  0  0  0  0  0  0  0  0  0  0  0  0
    6.9022    1.6991   25.3594 C   0  0  0  0  0  0  0  0  0  0  0  0
  1  2  2  0  0  0
  2 14  1  0  0  0
 14 15  1  0  0  0
 15 16  2  0  0  0
 16 17  1  0  0  0
 17 18  2  0  0  0
 18 19  1  0  0  0
 19 20  2  0  0  0
 20 21  1  0  0  0
 21 22  2  0  0  0
 22 23  1  0  0  0
 23 24  2  0  0  0
  2  3  1  0  0  0
  3 25  1  0  0  0
 25 26  1  0  0  0
 26 27  2  0  0  0
 27 28  1  0  0  0
 28 29  2  0  0  0
 29 30  1  0  0  0
 30 31  1  0  0  0
 30 32  2  0  0  0
  4  3  1  0  0  0
  4  5  1  0  0  0
  5  6  1  0  0  0
  6 11  1  0  0  0
 11 12  1  0  0  0
 12 13  1  0  0  0
  6  7  1  0  0  0
  7  8  1  0  0  0
  7  9  1  0  0  0
 24 15  1  0  0  0
 32 26  1  0  0  0
  8  4  1  0  0  0
 24 19  1  0  0  0
  9  4  1  0  0  0
 13 11  1  0  0  0
  6 10  1  0  0  0
M  CHG 1   6   1
M  END
> <minimizedAffinity>
-7.57920

> <CNNscore>
0.5695816875

> <CNNaffinity>
6.7389616966

> <CNN_VS>
3.8383891582

> <CNNaffinity_variance>
0.0118038179

$$$$



 32 37  0  0  0  0  0  0  0  0999 V2000
    5.0376   -2.9514   21.0387 O   0  0  0  0  0  0  0  0  0  0  0  0
    6.0779   -2.1788   21.7943 C   0  0  0  0  0  0  0  0  0  0  0  0
    6.9781   -2.8841   22.7650 N   0  0  0  0  0  0  0  0  0  0  0  0
    8.0184   -2.1116   23.5206 C   0  0  0  0  0  0  0  0  0  0  0  0
    9.3307   -2.2901   22.8165 C   0  0  0  0  0  0  0  0  0  0  0  0
   10.3710   -1.5175   23.5721 N   0  0  0  0  0  0  0  0  0  0  0  0
    9.4896   -1.0190   24.5891 C   0  0  0  0  0  0  0  0  0  0  0  0
    9.4907   -1.8755   23.3578 C   0  0  0  0  0  0  0  0  0  0  0  0
    8.0172   -1.2551   24.7520 C   0  0  0  0  0  0  0  0  0  0  0  0
   10.6811   -2.0219   22.7415 H   0  0  0  0  0  0  0  0  0  0  0  0
   11.8254   -1.4184   23.2187 C   0  0  0  0  0  0  0  0  0  0  0  0
   13.2448   -1.8583   23.4229 C   0  0  0  0  0  0  0  0  0  0  0  0
   12.9251   -0.8067   22.4022 C   0  0  0  0  0  0  0  0  0  0  0  0
    6.2180   -0.7010   21.5792 C   0  0  0  0  0  0  0  0  0  0  0  0
    5.7524   -0.0826   20.2944 C   0  0  0  0  0  0  0  0  0  0  0  0
    6.4932   -0.3557   19.0190 C   0  0  0  0  0  0  0  0  0  0  0  0
    6.0276    0.2627   17.7341 N   0  0  0  0  0  0  0  0  0  0  0  0
    4.8214    1.1542   17.7246 C   0  0  0  0  0  0  0  0  0  0  0  0
    4.0806    1.4273   19.0001 C   0  0  0  0  0  0  0  0  0  0  0  0
    2.8743    2.3188   18.9906 C   0  0  0  0  0  0  0  0  0  0  0  0
    2.1336    2.5919   20.2660 C   0  0  0  0  0  0  0  0  0  0  0  0
    2.5991    1.9735   21.5509 C   0  0  0  0  0  0  0  0  0  0  0  0
    3.8054    1.0820   21.5604 C   0  0  0  0  0  0  0  0  0  0  0  0
    4.5461    0.8090   20.2850 C   0  0  0  0  0  0  0  0  0  0  0  0
    6.8379   -4.3620   22.9800 C   0  0  0  0  0  0  0  0  0  0  0  0
    5.7346   -4.8925   23.8468 C   0  0  0  0  0  0  0  0  0  0  0  0
    4.6506   -5.7384   23.2472 C   0  0  0  0  0  0  0  0  0  0  0  0
    3.5473   -6.2689   24.1141 C   0  0  0  0  0  0  0  0  0  0  0  0
    3.5280   -5.9534   25.5804 C   0  0  0  0  0  0  0  0  0  0  0  0
    4.6120   -5.1076   26.1799 C   0  0  0  0  0  0  0  0  0  0  0  0
    4.5927   -4.7921   27.6462 Cl  0  0  0  0  0  0  0  0  0  0  0  0
    5.7153   -4.5771   25.3131 C   0  0  0  0  0  0  0  0  0  0  0  0
  1  2  2  0  0  0
  2 14  1  0  0  0
 14 15  1  0  0  0
 15 16  2  0  0  0
 16 17  1  0  0  0
 17 18  2  0  0  0
 18 19  1  0  0  0
 19 20  2  0  0  0
 20 21  1  0  0  0
 21 22  2  0  0  0
 22 23  1  0  0  0
 23 24  2  0  0  0
  2  3  1  0  0  0
  3 25  1  0  0  0
 25 26  1  0  0  0
 26 27  2  0  0  0
 27 28  1  0  0  0
 28 29  2  0  0  0
 29 30  1  0  0  0
 30 31  1  0  0  0
 30 32  2  0  0  0
  4  3  1  0  0  0
  4  5  1  0  0  0
  5  6  1  0  0  0
  6 11  1  0  0  0
 11 12  1  0  0  0
 12 13  1  0  0  0
  6  7  1  0  0  0
  7  8  1  0  0  0
  7  9  1  0  0  0
 24 15  1  0  0  0
 32 26  1  0  0  0
  8  4  1  0  0  0
 24 19  1  0  0  0
  9  4  1  0  0  0
 13 11  1  0  0  0
  6 10  1  0  0  0
M  CHG 1   6   1
M  END
> <minimizedAffinity>
-7.69956

> <CNNscore>
0.5321868658

> <CNNaffinity>
6.4538688660

> <CNN_VS>
3.4346642494

> <CNNaffinity_variance>
0.0545080677

$$$$
