


 36 41  0  0  0  0  0  0  0  0999 V2000
   -7.2218   -1.0254  -23.1921 N   0  0  0  0  0  0  0  0  0  0  0  0
   -7.6459    0.3995  -23.3917 C   0  0  0  0  0  0  0  0  0  0  0  0
   -9.1038    0.7510  -23.4209 C   0  0  0  0  0  0  0  0  0  0  0  0
  -10.5170    1.2513  -23.4723 C   0  0  0  0  0  0  0  0  0  0  0  0
  -11.6555    0.8341  -23.3952 O   0  0  0  0  0  0  0  0  0  0  0  0
  -10.4758    2.7353  -23.6874 N   0  0  0  0  0  0  0  0  0  0  0  0
   -9.0372    3.1521  -23.7689 C   0  0  0  0  0  0  0  0  0  0  0  0
   -8.1893    1.9257  -23.6042 C   0  0  0  0  0  0  0  0  0  0  0  0
   -6.6900    1.8818  -23.6200 C   0  0  0  0  0  0  0  0  0  0  0  0
  -10.1377   -0.3224  -23.2505 C   0  0  0  0  0  0  0  0  0  0  0  0
  -11.5956    0.0291  -23.2798 C   0  0  0  0  0  0  0  0  0  0  0  0
  -12.6294   -1.0443  -23.1094 C   0  0  0  0  0  0  0  0  0  0  0  0
  -14.0874   -0.6928  -23.1386 F   0  0  0  0  0  0  0  0  0  0  0  0
  -12.2053   -2.4692  -22.9097 C   0  0  0  0  0  0  0  0  0  0  0  0
  -10.7474   -2.8207  -22.8805 C   0  0  0  0  0  0  0  0  0  0  0  0
   -9.7136   -1.7473  -23.0509 C   0  0  0  0  0  0  0  0  0  0  0  0
   -8.2556   -2.0988  -23.0217 C   0  0  0  0  0  0  0  0  0  0  0  0
   -7.8315   -3.5237  -22.8220 O   0  0  0  0  0  0  0  0  0  0  0  0
  -11.6645    3.6430  -23.8010 C   0  0  0  0  0  0  0  0  0  0  0  0
  -12.5573    3.8616  -22.6156 C   0  0  0  0  0  0  0  0  0  0  0  0
  -13.7460    4.7693  -22.7292 N   0  0  0  0  0  0  0  0  0  0  0  0
  -14.0420    5.4585  -24.0282 C   0  0  0  0  0  0  0  0  0  0  0  0
  -13.1492    5.2399  -25.2136 C   0  0  0  0  0  0  0  0  0  0  0  0
  -13.4451    5.9292  -26.5126 C   0  0  0  0  0  0  0  0  0  0  0  0
  -12.5523    5.7106  -27.6980 C   0  0  0  0  0  0  0  0  0  0  0  0
  -11.3636    4.8028  -27.5844 C   0  0  0  0  0  0  0  0  0  0  0  0
  -11.0676    4.1136  -26.2854 C   0  0  0  0  0  0  0  0  0  0  0  0
  -11.9604    4.3322  -25.1000 C   0  0  0  0  0  0  0  0  0  0  0  0
   -5.7638   -1.3769  -23.1628 C   0  0  0  0  0  0  0  0  0  0  0  0
   -1.9424    1.9401  -19.9388 C   0  0  0  0  0  0  0  0  0  0  0  0
   -2.8977    1.1108  -20.7448 C   0  0  0  0  0  0  0  0  0  0  0  0
   -2.7652    1.0527  -22.2379 C   0  0  0  0  0  0  0  0  0  0  0  0
   -3.7206    0.2235  -23.0439 N   0  0  0  0  0  0  0  0  0  0  0  0
   -4.8085   -0.5476  -22.3568 C   0  0  0  0  0  0  0  0  0  0  0  0
   -4.9409   -0.4895  -20.8639 C   0  0  0  0  0  0  0  0  0  0  0  0
   -3.9856    0.3397  -20.0578 N   0  0  0  0  0  0  0  0  0  0  0  0
 30 31  1  0  0  0
 31 32  2  0  0  0
 32 33  1  0  0  0
 33 34  2  0  0  0
 34 29  1  0  0  0
 29  1  1  0  0  0
  1  2  1  0  0  0
  3  2  1  0  0  0
  3  4  1  0  0  0
  4  5  2  0  0  0
  4  6  1  0  0  0
  6 19  1  0  0  0
 19 20  2  0  0  0
 20 21  1  0  0  0
 21 22  2  0  0  0
 22 23  1  0  0  0
 23 24  2  0  0  0
 24 25  1  0  0  0
 25 26  2  0  0  0
 26 27  1  0  0  0
 27 28  2  0  0  0
  6  7  1  0  0  0
  7  8  1  0  0  0
  8  9  1  0  0  0
  3 10  1  0  0  0
 10 11  2  0  0  0
 11 12  1  0  0  0
 12 13  1  0  0  0
 12 14  2  0  0  0
 14 15  1  0  0  0
 15 16  2  0  0  0
 16 17  1  0  0  0
 17 18  2  0  0  0
 34 35  1  0  0  0
 35 36  2  0  0  0
 36 31  1  0  0  0
 17  1  1  0  0  0
  8  3  1  0  0  0
 16 10  1  0  0  0
 28 19  1  0  0  0
 28 23  1  0  0  0
M  END
> <minimizedAffinity>
-8.78890

> <CNNscore>
0.7110322714

> <CNNaffinity>
6.9110374451

> <CNN_VS>
4.9139704704

> <CNNaffinity_variance>
0.0663866550

$$$$



 36 41  0  0  0  0  0  0  0  0999 V2000
   -7.9528   -1.5011  -23.6007 N   0  0  0  0  0  0  0  0  0  0  0  0
   -8.1704   -0.0292  -23.7906 C   0  0  0  0  0  0  0  0  0  0  0  0
   -9.5533    0.5433  -23.6928 C   0  0  0  0  0  0  0  0  0  0  0  0
  -10.8715    1.2558  -23.6243 C   0  0  0  0  0  0  0  0  0  0  0  0
  -12.0482    1.0202  -23.4338 O   0  0  0  0  0  0  0  0  0  0  0  0
  -10.6238    2.7141  -23.8737 N   0  0  0  0  0  0  0  0  0  0  0  0
   -9.1524    2.9028  -24.0962 C   0  0  0  0  0  0  0  0  0  0  0  0
   -8.4909    1.5612  -23.9844 C   0  0  0  0  0  0  0  0  0  0  0  0
   -7.0243    1.2859  -24.1374 C   0  0  0  0  0  0  0  0  0  0  0  0
  -10.7188   -0.3561  -23.4051 C   0  0  0  0  0  0  0  0  0  0  0  0
  -12.1018    0.2164  -23.3073 C   0  0  0  0  0  0  0  0  0  0  0  0
  -13.2672   -0.6830  -23.0196 C   0  0  0  0  0  0  0  0  0  0  0  0
  -14.6502   -0.1105  -22.9218 F   0  0  0  0  0  0  0  0  0  0  0  0
  -13.0496   -2.1550  -22.8298 C   0  0  0  0  0  0  0  0  0  0  0  0
  -11.6667   -2.7275  -22.9276 C   0  0  0  0  0  0  0  0  0  0  0  0
  -10.5013   -1.8281  -23.2152 C   0  0  0  0  0  0  0  0  0  0  0  0
   -9.1182   -2.4006  -23.3130 C   0  0  0  0  0  0  0  0  0  0  0  0
   -8.9007   -3.8725  -23.1232 O   0  0  0  0  0  0  0  0  0  0  0  0
  -11.6646    3.7939  -23.8965 C   0  0  0  0  0  0  0  0  0  0  0  0
  -12.3891    4.1640  -22.6363 C   0  0  0  0  0  0  0  0  0  0  0  0
  -13.4300    5.2439  -22.6591 N   0  0  0  0  0  0  0  0  0  0  0  0
  -13.7463    5.9537  -23.9421 C   0  0  0  0  0  0  0  0  0  0  0  0
  -13.0218    5.5836  -25.2023 C   0  0  0  0  0  0  0  0  0  0  0  0
  -13.3381    6.2934  -26.4853 C   0  0  0  0  0  0  0  0  0  0  0  0
  -12.6136    5.9233  -27.7455 C   0  0  0  0  0  0  0  0  0  0  0  0
  -11.5727    4.8434  -27.7227 C   0  0  0  0  0  0  0  0  0  0  0  0
  -11.2564    4.1336  -26.4397 C   0  0  0  0  0  0  0  0  0  0  0  0
  -11.9809    4.5037  -25.1795 C   0  0  0  0  0  0  0  0  0  0  0  0
   -6.5698   -2.0736  -23.6985 C   0  0  0  0  0  0  0  0  0  0  0  0
   -5.5080   -6.7534  -27.3003 C   0  0  0  0  0  0  0  0  0  0  0  0
   -5.7734   -5.5835  -26.3998 C   0  0  0  0  0  0  0  0  0  0  0  0
   -5.6114   -5.7275  -24.9155 C   0  0  0  0  0  0  0  0  0  0  0  0
   -5.8768   -4.5575  -24.0151 N   0  0  0  0  0  0  0  0  0  0  0  0
   -6.3043   -3.2436  -24.5989 C   0  0  0  0  0  0  0  0  0  0  0  0
   -6.4663   -3.0996  -26.0832 C   0  0  0  0  0  0  0  0  0  0  0  0
   -6.2009   -4.2695  -26.9836 N   0  0  0  0  0  0  0  0  0  0  0  0
 30 31  1  0  0  0
 31 32  2  0  0  0
 32 33  1  0  0  0
 33 34  2  0  0  0
 34 29  1  0  0  0
 29  1  1  0  0  0
  1  2  1  0  0  0
  3  2  1  0  0  0
  3  4  1  0  0  0
  4  5  2  0  0  0
  4  6  1  0  0  0
  6 19  1  0  0  0
 19 20  2  0  0  0
 20 21  1  0  0  0
 21 22  2  0  0  0
 22 23  1  0  0  0
 23 24  2  0  0  0
 24 25  1  0  0  0
 25 26  2  0  0  0
 26 27  1  0  0  0
 27 28  2  0  0  0
  6  7  1  0  0  0
  7  8  1  0  0  0
  8  9  1  0  0  0
  3 10  1  0  0  0
 10 11  2  0  0  0
 11 12  1  0  0  0
 12 13  1  0  0  0
 12 14  2  0  0  0
 14 15  1  0  0  0
 15 16  2  0  0  0
 16 17  1  0  0  0
 17 18  2  0  0  0
 34 35  1  0  0  0
 35 36  2  0  0  0
 36 31  1  0  0  0
 17  1  1  0  0  0
  8  3  1  0  0  0
 16 10  1  0  0  0
 28 19  1  0  0  0
 28 23  1  0  0  0
M  END
> <minimizedAffinity>
-7.53315

> <CNNscore>
0.7018066049

> <CNNaffinity>
6.8742723465

> <CNN_VS>
4.8244099617

> <CNNaffinity_variance>
0.0604251623

$$$$



 36 41  0  0  0  0  0  0  0  0999 V2000
   -7.9257   -1.1681  -23.4357 N   0  0  0  0  0  0  0  0  0  0  0  0
   -8.1715    0.2953  -23.6549 C   0  0  0  0  0  0  0  0  0  0  0  0
   -9.5693    0.8370  -23.6028 C   0  0  0  0  0  0  0  0  0  0  0  0
  -10.9047    1.5198  -23.5805 C   0  0  0  0  0  0  0  0  0  0  0  0
  -12.0804    1.2599  -23.4173 O   0  0  0  0  0  0  0  0  0  0  0  0
  -10.6837    2.9793  -23.8467 N   0  0  0  0  0  0  0  0  0  0  0  0
   -9.2116    3.1987  -24.0334 C   0  0  0  0  0  0  0  0  0  0  0  0
   -8.5229    1.8747  -23.8827 C   0  0  0  0  0  0  0  0  0  0  0  0
   -7.0469    1.6311  -23.9925 C   0  0  0  0  0  0  0  0  0  0  0  0
  -10.7213   -0.0846  -23.3315 C   0  0  0  0  0  0  0  0  0  0  0  0
  -12.1190    0.4571  -23.2794 C   0  0  0  0  0  0  0  0  0  0  0  0
  -13.2709   -0.4646  -23.0081 C   0  0  0  0  0  0  0  0  0  0  0  0
  -14.6688    0.0771  -22.9559 F   0  0  0  0  0  0  0  0  0  0  0  0
  -13.0250   -1.9280  -22.7889 C   0  0  0  0  0  0  0  0  0  0  0  0
  -11.6273   -2.4697  -22.8410 C   0  0  0  0  0  0  0  0  0  0  0  0
  -10.4754   -1.5480  -23.1123 C   0  0  0  0  0  0  0  0  0  0  0  0
   -9.0775   -2.0897  -23.1644 C   0  0  0  0  0  0  0  0  0  0  0  0
   -8.8317   -3.5531  -22.9452 O   0  0  0  0  0  0  0  0  0  0  0  0
  -11.7479    4.0343  -23.9143 C   0  0  0  0  0  0  0  0  0  0  0  0
  -12.4724    4.4496  -22.6682 C   0  0  0  0  0  0  0  0  0  0  0  0
  -13.5366    5.5046  -22.7358 N   0  0  0  0  0  0  0  0  0  0  0  0
  -13.8763    6.1441  -24.0494 C   0  0  0  0  0  0  0  0  0  0  0  0
  -13.1517    5.7288  -25.2954 C   0  0  0  0  0  0  0  0  0  0  0  0
  -13.4914    6.3684  -26.6091 C   0  0  0  0  0  0  0  0  0  0  0  0
  -12.7669    5.9530  -27.8550 C   0  0  0  0  0  0  0  0  0  0  0  0
  -11.7027    4.8981  -27.7875 C   0  0  0  0  0  0  0  0  0  0  0  0
  -11.3630    4.2585  -26.4739 C   0  0  0  0  0  0  0  0  0  0  0  0
  -12.0875    4.6738  -25.2278 C   0  0  0  0  0  0  0  0  0  0  0  0
   -6.5278   -1.7098  -23.4878 C   0  0  0  0  0  0  0  0  0  0  0  0
   -5.3360   -7.1550  -21.2677 C   0  0  0  0  0  0  0  0  0  0  0  0
   -5.6339   -5.7937  -21.8227 C   0  0  0  0  0  0  0  0  0  0  0  0
   -6.0287   -5.6404  -23.2618 C   0  0  0  0  0  0  0  0  0  0  0  0
   -6.3266   -4.2791  -23.8168 N   0  0  0  0  0  0  0  0  0  0  0  0
   -6.2298   -3.0711  -22.9328 C   0  0  0  0  0  0  0  0  0  0  0  0
   -5.8351   -3.2244  -21.4939 C   0  0  0  0  0  0  0  0  0  0  0  0
   -5.5372   -4.5857  -20.9388 N   0  0  0  0  0  0  0  0  0  0  0  0
 30 31  1  0  0  0
 31 32  2  0  0  0
 32 33  1  0  0  0
 33 34  2  0  0  0
 34 29  1  0  0  0
 29  1  1  0  0  0
  1  2  1  0  0  0
  3  2  1  0  0  0
  3  4  1  0  0  0
  4  5  2  0  0  0
  4  6  1  0  0  0
  6 19  1  0  0  0
 19 20  2  0  0  0
 20 21  1  0  0  0
 21 22  2  0  0  0
 22 23  1  0  0  0
 23 24  2  0  0  0
 24 25  1  0  0  0
 25 26  2  0  0  0
 26 27  1  0  0  0
 27 28  2  0  0  0
  6  7  1  0  0  0
  7  8  1  0  0  0
  8  9  1  0  0  0
  3 10  1  0  0  0
 10 11  2  0  0  0
 11 12  1  0  0  0
 12 13  1  0  0  0
 12 14  2  0  0  0
 14 15  1  0  0  0
 15 16  2  0  0  0
 16 17  1  0  0  0
 17 18  2  0  0  0
 34 35  1  0  0  0
 35 36  2  0  0  0
 36 31  1  0  0  0
 17  1  1  0  0  0
  8  3  1  0  0  0
 16 10  1  0  0  0
 28 19  1  0  0  0
 28 23  1  0  0  0
M  END
> <minimizedAffinity>
-8.26804

> <CNNscore>
0.6685709357

> <CNNaffinity>
6.7208771706

> <CNN_VS>
4.4933829308

> <CNNaffinity_variance>
0.1582006961

$$$$



 36 41  0  0  0  0  0  0  0  0999 V2000
   -7.9505   -1.1830  -23.5664 N   0  0  0  0  0  0  0  0  0  0  0  0
   -8.2014    0.2833  -23.7585 C   0  0  0  0  0  0  0  0  0  0  0  0
   -9.5986    0.8226  -23.6740 C   0  0  0  0  0  0  0  0  0  0  0  0
  -10.9340    1.5033  -23.6183 C   0  0  0  0  0  0  0  0  0  0  0  0
  -12.1065    1.2396  -23.4389 O   0  0  0  0  0  0  0  0  0  0  0  0
  -10.7189    2.9671  -23.8654 N   0  0  0  0  0  0  0  0  0  0  0  0
   -9.2504    3.1910  -24.0739 C   0  0  0  0  0  0  0  0  0  0  0  0
   -8.5580    1.8657  -23.9556 C   0  0  0  0  0  0  0  0  0  0  0  0
   -7.0839    1.6255  -24.0945 C   0  0  0  0  0  0  0  0  0  0  0  0
  -10.7449   -0.1045  -23.3974 C   0  0  0  0  0  0  0  0  0  0  0  0
  -12.1420    0.4347  -23.3129 C   0  0  0  0  0  0  0  0  0  0  0  0
  -13.2883   -0.4924  -23.0363 C   0  0  0  0  0  0  0  0  0  0  0  0
  -14.6855    0.0468  -22.9518 F   0  0  0  0  0  0  0  0  0  0  0  0
  -13.0374   -1.9587  -22.8442 C   0  0  0  0  0  0  0  0  0  0  0  0
  -11.6403   -2.4980  -22.9287 C   0  0  0  0  0  0  0  0  0  0  0  0
  -10.4940   -1.5709  -23.2053 C   0  0  0  0  0  0  0  0  0  0  0  0
   -9.0968   -2.1101  -23.2898 C   0  0  0  0  0  0  0  0  0  0  0  0
   -8.8459   -3.5764  -23.0977 O   0  0  0  0  0  0  0  0  0  0  0  0
  -11.7850    4.0217  -23.8982 C   0  0  0  0  0  0  0  0  0  0  0  0
  -12.4836    4.4218  -22.6325 C   0  0  0  0  0  0  0  0  0  0  0  0
  -13.5497    5.4764  -22.6654 N   0  0  0  0  0  0  0  0  0  0  0  0
  -13.9173    6.1310  -23.9640 C   0  0  0  0  0  0  0  0  0  0  0  0
  -13.2187    5.7310  -25.2297 C   0  0  0  0  0  0  0  0  0  0  0  0
  -13.5863    6.3857  -26.5283 C   0  0  0  0  0  0  0  0  0  0  0  0
  -12.8877    5.9856  -27.7940 C   0  0  0  0  0  0  0  0  0  0  0  0
  -11.8216    4.9309  -27.7611 C   0  0  0  0  0  0  0  0  0  0  0  0
  -11.4540    4.2763  -26.4625 C   0  0  0  0  0  0  0  0  0  0  0  0
  -12.1526    4.6764  -25.1968 C   0  0  0  0  0  0  0  0  0  0  0  0
   -6.5533   -1.7222  -23.6509 C   0  0  0  0  0  0  0  0  0  0  0  0
   -5.5933   -7.6346  -23.3017 C   0  0  0  0  0  0  0  0  0  0  0  0
   -5.8333   -6.1565  -23.3890 C   0  0  0  0  0  0  0  0  0  0  0  0
   -5.8953   -5.3316  -22.1377 C   0  0  0  0  0  0  0  0  0  0  0  0
   -6.1353   -3.8535  -22.2250 N   0  0  0  0  0  0  0  0  0  0  0  0
   -6.3133   -3.2003  -23.5636 C   0  0  0  0  0  0  0  0  0  0  0  0
   -6.2513   -4.0253  -24.8148 C   0  0  0  0  0  0  0  0  0  0  0  0
   -6.0113   -5.5034  -24.7275 N   0  0  0  0  0  0  0  0  0  0  0  0
 30 31  1  0  0  0
 31 32  2  0  0  0
 32 33  1  0  0  0
 33 34  2  0  0  0
 34 29  1  0  0  0
 29  1  1  0  0  0
  1  2  1  0  0  0
  3  2  1  0  0  0
  3  4  1  0  0  0
  4  5  2  0  0  0
  4  6  1  0  0  0
  6 19  1  0  0  0
 19 20  2  0  0  0
 20 21  1  0  0  0
 21 22  2  0  0  0
 22 23  1  0  0  0
 23 24  2  0  0  0
 24 25  1  0  0  0
 25 26  2  0  0  0
 26 27  1  0  0  0
 27 28  2  0  0  0
  6  7  1  0  0  0
  7  8  1  0  0  0
  8  9  1  0  0  0
  3 10  1  0  0  0
 10 11  2  0  0  0
 11 12  1  0  0  0
 12 13  1  0  0  0
 12 14  2  0  0  0
 14 15  1  0  0  0
 15 16  2  0  0  0
 16 17  1  0  0  0
 17 18  2  0  0  0
 34 35  1  0  0  0
 35 36  2  0  0  0
 36 31  1  0  0  0
 17  1  1  0  0  0
  8  3  1  0  0  0
 16 10  1  0  0  0
 28 19  1  0  0  0
 28 23  1  0  0  0
M  END
> <minimizedAffinity>
-7.96837

> <CNNscore>
0.6023692489

> <CNNaffinity>
6.6624946594

> <CNN_VS>
4.0132818222

> <CNNaffinity_variance>
0.1122047901

$$$$



 36 41  0  0  0  0  0  0  0  0999 V2000
  -11.3841    3.5084  -23.8638 N   0  0  0  0  0  0  0  0  0  0  0  0
  -10.0489    2.8248  -23.8680 C   0  0  0  0  0  0  0  0  0  0  0  0
   -9.9652    1.3412  -23.6629 C   0  0  0  0  0  0  0  0  0  0  0  0
   -9.7259   -0.1271  -23.4718 C   0  0  0  0  0  0  0  0  0  0  0  0
  -10.3461   -1.1539  -23.2782 O   0  0  0  0  0  0  0  0  0  0  0  0
   -8.2477   -0.3699  -23.5497 N   0  0  0  0  0  0  0  0  0  0  0  0
   -7.5735    0.9485  -23.7890 C   0  0  0  0  0  0  0  0  0  0  0  0
   -8.6349    2.0060  -23.8589 C   0  0  0  0  0  0  0  0  0  0  0  0
   -8.4063    3.4711  -24.0852 C   0  0  0  0  0  0  0  0  0  0  0  0
  -11.2168    0.5412  -23.4536 C   0  0  0  0  0  0  0  0  0  0  0  0
  -11.1331   -0.9423  -23.2485 C   0  0  0  0  0  0  0  0  0  0  0  0
  -12.3845   -1.7422  -23.0392 C   0  0  0  0  0  0  0  0  0  0  0  0
  -12.3009   -3.2258  -22.8340 F   0  0  0  0  0  0  0  0  0  0  0  0
  -13.7197   -1.0586  -23.0350 C   0  0  0  0  0  0  0  0  0  0  0  0
  -13.8034    0.4249  -23.2401 C   0  0  0  0  0  0  0  0  0  0  0  0
  -12.5519    1.2248  -23.4494 C   0  0  0  0  0  0  0  0  0  0  0  0
  -12.6356    2.7084  -23.6545 C   0  0  0  0  0  0  0  0  0  0  0  0
  -13.9707    3.3920  -23.6503 O   0  0  0  0  0  0  0  0  0  0  0  0
   -7.5639   -1.6979  -23.4125 C   0  0  0  0  0  0  0  0  0  0  0  0
   -6.9567   -2.0968  -22.1001 C   0  0  0  0  0  0  0  0  0  0  0  0
   -6.2729   -3.4248  -21.9628 N   0  0  0  0  0  0  0  0  0  0  0  0
   -6.1962   -4.3538  -23.1380 C   0  0  0  0  0  0  0  0  0  0  0  0
   -6.8033   -3.9549  -24.4503 C   0  0  0  0  0  0  0  0  0  0  0  0
   -6.7266   -4.8840  -25.6255 C   0  0  0  0  0  0  0  0  0  0  0  0
   -7.3337   -4.4850  -26.9378 C   0  0  0  0  0  0  0  0  0  0  0  0
   -8.0176   -3.1571  -27.0751 C   0  0  0  0  0  0  0  0  0  0  0  0
   -8.0943   -2.2280  -25.9000 C   0  0  0  0  0  0  0  0  0  0  0  0
   -7.4871   -2.6269  -24.5876 C   0  0  0  0  0  0  0  0  0  0  0  0
  -11.4677    4.9920  -24.0689 C   0  0  0  0  0  0  0  0  0  0  0  0
  -14.5221    7.2080  -28.7337 C   0  0  0  0  0  0  0  0  0  0  0  0
  -13.7585    6.6540  -27.5675 C   0  0  0  0  0  0  0  0  0  0  0  0
  -12.7545    5.5600  -27.7800 C   0  0  0  0  0  0  0  0  0  0  0  0
  -11.9909    5.0060  -26.6138 N   0  0  0  0  0  0  0  0  0  0  0  0
  -12.2313    5.5460  -25.2351 C   0  0  0  0  0  0  0  0  0  0  0  0
  -13.2354    6.6399  -25.0227 C   0  0  0  0  0  0  0  0  0  0  0  0
  -13.9990    7.1939  -26.1889 N   0  0  0  0  0  0  0  0  0  0  0  0
 30 31  1  0  0  0
 31 32  2  0  0  0
 32 33  1  0  0  0
 33 34  2  0  0  0
 34 29  1  0  0  0
 29  1  1  0  0  0
  1  2  1  0  0  0
  3  2  1  0  0  0
  3  4  1  0  0  0
  4  5  2  0  0  0
  4  6  1  0  0  0
  6 19  1  0  0  0
 19 20  2  0  0  0
 20 21  1  0  0  0
 21 22  2  0  0  0
 22 23  1  0  0  0
 23 24  2  0  0  0
 24 25  1  0  0  0
 25 26  2  0  0  0
 26 27  1  0  0  0
 27 28  2  0  0  0
  6  7  1  0  0  0
  7  8  1  0  0  0
  8  9  1  0  0  0
  3 10  1  0  0  0
 10 11  2  0  0  0
 11 12  1  0  0  0
 12 13  1  0  0  0
 12 14  2  0  0  0
 14 15  1  0  0  0
 15 16  2  0  0  0
 16 17  1  0  0  0
 17 18  2  0  0  0
 34 35  1  0  0  0
 35 36  2  0  0  0
 36 31  1  0  0  0
 17  1  1  0  0  0
  8  3  1  0  0  0
 16 10  1  0  0  0
 28 19  1  0  0  0
 28 23  1  0  0  0
M  END
> <minimizedAffinity>
-8.04538

> <CNNscore>
0.4910343587

> <CNNaffinity>
6.7640161514

> <CNN_VS>
3.3213644028

> <CNNaffinity_variance>
0.2505271435

$$$$



 36 41  0  0  0  0  0  0  0  0999 V2000
   -9.5133    2.6307  -24.2307 N   0  0  0  0  0  0  0  0  0  0  0  0
   -8.5495    1.4895  -24.3678 C   0  0  0  0  0  0  0  0  0  0  0  0
   -9.0118    0.0838  -24.1224 C   0  0  0  0  0  0  0  0  0  0  0  0
   -9.3273   -1.3671  -23.9097 C   0  0  0  0  0  0  0  0  0  0  0  0
  -10.2627   -2.0819  -23.6089 O   0  0  0  0  0  0  0  0  0  0  0  0
   -8.0738   -2.1545  -24.1522 N   0  0  0  0  0  0  0  0  0  0  0  0
   -6.9835   -1.1902  -24.5148 C   0  0  0  0  0  0  0  0  0  0  0  0
   -7.5633    0.1932  -24.4964 C   0  0  0  0  0  0  0  0  0  0  0  0
   -6.8242    1.4629  -24.7989 C   0  0  0  0  0  0  0  0  0  0  0  0
  -10.4379   -0.1808  -23.7398 C   0  0  0  0  0  0  0  0  0  0  0  0
  -10.9001   -1.5865  -23.4943 C   0  0  0  0  0  0  0  0  0  0  0  0
  -12.3261   -1.8510  -23.1117 C   0  0  0  0  0  0  0  0  0  0  0  0
  -12.7885   -3.2567  -22.8662 F   0  0  0  0  0  0  0  0  0  0  0  0
  -13.2899   -0.7098  -22.9745 C   0  0  0  0  0  0  0  0  0  0  0  0
  -12.8277    0.6959  -23.2200 C   0  0  0  0  0  0  0  0  0  0  0  0
  -11.4016    0.9604  -23.6026 C   0  0  0  0  0  0  0  0  0  0  0  0
  -10.9393    2.3662  -23.8480 C   0  0  0  0  0  0  0  0  0  0  0  0
  -11.9031    3.5074  -23.7109 O   0  0  0  0  0  0  0  0  0  0  0  0
   -7.9349   -3.6445  -24.0500 C   0  0  0  0  0  0  0  0  0  0  0  0
   -7.3147   -4.2581  -22.8298 C   0  0  0  0  0  0  0  0  0  0  0  0
   -7.1759   -5.7482  -22.7276 N   0  0  0  0  0  0  0  0  0  0  0  0
   -7.6572   -6.6247  -23.8457 C   0  0  0  0  0  0  0  0  0  0  0  0
   -8.2774   -6.0111  -25.0659 C   0  0  0  0  0  0  0  0  0  0  0  0
   -8.7587   -6.8876  -26.1840 C   0  0  0  0  0  0  0  0  0  0  0  0
   -9.3789   -6.2740  -27.4042 C   0  0  0  0  0  0  0  0  0  0  0  0
   -9.5177   -4.7839  -27.5064 C   0  0  0  0  0  0  0  0  0  0  0  0
   -9.0364   -3.9075  -26.3883 C   0  0  0  0  0  0  0  0  0  0  0  0
   -8.4162   -4.5210  -25.1681 C   0  0  0  0  0  0  0  0  0  0  0  0
   -9.0510    4.0365  -24.4761 C   0  0  0  0  0  0  0  0  0  0  0  0
  -11.6876    7.3645  -28.7155 C   0  0  0  0  0  0  0  0  0  0  0  0
  -11.0285    6.5325  -27.6557 C   0  0  0  0  0  0  0  0  0  0  0  0
  -11.0211    7.0012  -26.2308 C   0  0  0  0  0  0  0  0  0  0  0  0
  -10.3619    6.1692  -25.1709 N   0  0  0  0  0  0  0  0  0  0  0  0
   -9.7101    4.8685  -25.5360 C   0  0  0  0  0  0  0  0  0  0  0  0
   -9.7175    4.3997  -26.9608 C   0  0  0  0  0  0  0  0  0  0  0  0
  -10.3767    5.2317  -28.0206 N   0  0  0  0  0  0  0  0  0  0  0  0
 30 31  1  0  0  0
 31 32  2  0  0  0
 32 33  1  0  0  0
 33 34  2  0  0  0
 34 29  1  0  0  0
 29  1  1  0  0  0
  1  2  1  0  0  0
  3  2  1  0  0  0
  3  4  1  0  0  0
  4  5  2  0  0  0
  4  6  1  0  0  0
  6 19  1  0  0  0
 19 20  2  0  0  0
 20 21  1  0  0  0
 21 22  2  0  0  0
 22 23  1  0  0  0
 23 24  2  0  0  0
 24 25  1  0  0  0
 25 26  2  0  0  0
 26 27  1  0  0  0
 27 28  2  0  0  0
  6  7  1  0  0  0
  7  8  1  0  0  0
  8  9  1  0  0  0
  3 10  1  0  0  0
 10 11  2  0  0  0
 11 12  1  0  0  0
 12 13  1  0  0  0
 12 14  2  0  0  0
 14 15  1  0  0  0
 15 16  2  0  0  0
 16 17  1  0  0  0
 17 18  2  0  0  0
 34 35  1  0  0  0
 35 36  2  0  0  0
 36 31  1  0  0  0
 17  1  1  0  0  0
  8  3  1  0  0  0
 16 10  1  0  0  0
 28 19  1  0  0  0
 28 23  1  0  0  0
M  END
> <minimizedAffinity>
-7.74486

> <CNNscore>
0.4111640453

> <CNNaffinity>
6.5741410255

> <CNN_VS>
2.7030503750

> <CNNaffinity_variance>
0.1547191292

$$$$



 36 41  0  0  0  0  0  0  0  0999 V2000
   -9.5207    2.7000  -24.7995 N   0  0  0  0  0  0  0  0  0  0  0  0
   -8.5632    1.5496  -24.8985 C   0  0  0  0  0  0  0  0  0  0  0  0
   -8.9997    0.1733  -24.4921 C   0  0  0  0  0  0  0  0  0  0  0  0
   -9.2919   -1.2512  -24.1244 C   0  0  0  0  0  0  0  0  0  0  0  0
  -10.2000   -1.9338  -23.6934 O   0  0  0  0  0  0  0  0  0  0  0  0
   -8.0546   -2.0594  -24.3813 N   0  0  0  0  0  0  0  0  0  0  0  0
   -6.9977   -1.1344  -24.9078 C   0  0  0  0  0  0  0  0  0  0  0  0
   -7.5818    0.2456  -24.9763 C   0  0  0  0  0  0  0  0  0  0  0  0
   -6.8725    1.4808  -25.4464 C   0  0  0  0  0  0  0  0  0  0  0  0
  -10.3938   -0.0527  -23.9866 C   0  0  0  0  0  0  0  0  0  0  0  0
  -10.8303   -1.4290  -23.5802 C   0  0  0  0  0  0  0  0  0  0  0  0
  -12.2244   -1.6549  -23.0748 C   0  0  0  0  0  0  0  0  0  0  0  0
  -12.6610   -3.0313  -22.6683 F   0  0  0  0  0  0  0  0  0  0  0  0
  -13.1819   -0.5046  -22.9757 C   0  0  0  0  0  0  0  0  0  0  0  0
  -12.7454    0.8717  -23.3821 C   0  0  0  0  0  0  0  0  0  0  0  0
  -11.3514    1.0977  -23.8876 C   0  0  0  0  0  0  0  0  0  0  0  0
  -10.9148    2.4740  -24.2940 C   0  0  0  0  0  0  0  0  0  0  0  0
  -11.8723    3.6244  -24.1949 O   0  0  0  0  0  0  0  0  0  0  0  0
   -7.9012   -3.5338  -24.1520 C   0  0  0  0  0  0  0  0  0  0  0  0
   -7.2787   -4.0347  -22.8825 C   0  0  0  0  0  0  0  0  0  0  0  0
   -7.1253   -5.5091  -22.6532 N   0  0  0  0  0  0  0  0  0  0  0  0
   -7.5944   -6.4826  -23.6933 C   0  0  0  0  0  0  0  0  0  0  0  0
   -8.2170   -5.9818  -24.9628 C   0  0  0  0  0  0  0  0  0  0  0  0
   -8.6862   -6.9555  -26.0031 C   0  0  0  0  0  0  0  0  0  0  0  0
   -9.3087   -6.4546  -27.2725 C   0  0  0  0  0  0  0  0  0  0  0  0
   -9.4621   -4.9802  -27.5019 C   0  0  0  0  0  0  0  0  0  0  0  0
   -8.9930   -4.0066  -26.4617 C   0  0  0  0  0  0  0  0  0  0  0  0
   -8.3704   -4.5074  -25.1922 C   0  0  0  0  0  0  0  0  0  0  0  0
   -9.0842    4.0764  -25.2059 C   0  0  0  0  0  0  0  0  0  0  0  0
   -5.8918    7.4539  -21.4110 C   0  0  0  0  0  0  0  0  0  0  0  0
   -6.6899    6.6095  -22.3597 C   0  0  0  0  0  0  0  0  0  0  0  0
   -6.9750    5.1745  -22.0285 C   0  0  0  0  0  0  0  0  0  0  0  0
   -7.7731    4.3301  -22.9772 N   0  0  0  0  0  0  0  0  0  0  0  0
   -8.2861    4.9207  -24.2572 C   0  0  0  0  0  0  0  0  0  0  0  0
   -8.0009    6.3556  -24.5883 C   0  0  0  0  0  0  0  0  0  0  0  0
   -7.2028    7.2000  -23.6396 N   0  0  0  0  0  0  0  0  0  0  0  0
 30 31  1  0  0  0
 31 32  2  0  0  0
 32 33  1  0  0  0
 33 34  2  0  0  0
 34 29  1  0  0  0
 29  1  1  0  0  0
  1  2  1  0  0  0
  3  2  1  0  0  0
  3  4  1  0  0  0
  4  5  2  0  0  0
  4  6  1  0  0  0
  6 19  1  0  0  0
 19 20  2  0  0  0
 20 21  1  0  0  0
 21 22  2  0  0  0
 22 23  1  0  0  0
 23 24  2  0  0  0
 24 25  1  0  0  0
 25 26  2  0  0  0
 26 27  1  0  0  0
 27 28  2  0  0  0
  6  7  1  0  0  0
  7  8  1  0  0  0
  8  9  1  0  0  0
  3 10  1  0  0  0
 10 11  2  0  0  0
 11 12  1  0  0  0
 12 13  1  0  0  0
 12 14  2  0  0  0
 14 15  1  0  0  0
 15 16  2  0  0  0
 16 17  1  0  0  0
 17 18  2  0  0  0
 34 35  1  0  0  0
 35 36  2  0  0  0
 36 31  1  0  0  0
 17  1  1  0  0  0
  8  3  1  0  0  0
 16 10  1  0  0  0
 28 19  1  0  0  0
 28 23  1  0  0  0
M  END
> <minimizedAffinity>
-7.94024

> <CNNscore>
0.3399313092

> <CNNaffinity>
6.4622583389

> <CNN_VS>
2.1967239380

> <CNNaffinity_variance>
0.0923271626

$$$$



 36 41  0  0  0  0  0  0  0  0999 V2000
   -9.1807   -2.0076  -23.4588 N   0  0  0  0  0  0  0  0  0  0  0  0
   -7.8123   -2.0339  -22.8449 C   0  0  0  0  0  0  0  0  0  0  0  0
   -7.0845   -0.7495  -22.5794 C   0  0  0  0  0  0  0  0  0  0  0  0
   -6.2395    0.4472  -22.2572 C   0  0  0  0  0  0  0  0  0  0  0  0
   -6.2761    1.6595  -22.3305 O   0  0  0  0  0  0  0  0  0  0  0  0
   -4.9537   -0.0409  -21.6586 N   0  0  0  0  0  0  0  0  0  0  0  0
   -5.0040   -1.5393  -21.6108 C   0  0  0  0  0  0  0  0  0  0  0  0
   -6.3209   -1.9772  -22.1798 C   0  0  0  0  0  0  0  0  0  0  0  0
   -6.7916   -3.3941  -22.3241 C   0  0  0  0  0  0  0  0  0  0  0  0
   -7.7251    0.5614  -22.9278 C   0  0  0  0  0  0  0  0  0  0  0  0
   -6.9974    1.8458  -22.6622 C   0  0  0  0  0  0  0  0  0  0  0  0
   -7.6380    3.1566  -23.0106 C   0  0  0  0  0  0  0  0  0  0  0  0
   -6.9102    4.4411  -22.7450 F   0  0  0  0  0  0  0  0  0  0  0  0
   -9.0063    3.1830  -23.6245 C   0  0  0  0  0  0  0  0  0  0  0  0
   -9.7341    1.8986  -23.8900 C   0  0  0  0  0  0  0  0  0  0  0  0
   -9.0935    0.5878  -23.5417 C   0  0  0  0  0  0  0  0  0  0  0  0
   -9.8213   -0.6968  -23.8072 C   0  0  0  0  0  0  0  0  0  0  0  0
  -11.1896   -0.6704  -24.4211 O   0  0  0  0  0  0  0  0  0  0  0  0
   -3.8171    0.8186  -21.1900 C   0  0  0  0  0  0  0  0  0  0  0  0
   -3.8150    1.3627  -19.7922 C   0  0  0  0  0  0  0  0  0  0  0  0
   -2.6784    2.2222  -19.3237 N   0  0  0  0  0  0  0  0  0  0  0  0
   -1.5439    2.5374  -20.2529 C   0  0  0  0  0  0  0  0  0  0  0  0
   -1.5460    1.9932  -21.6507 C   0  0  0  0  0  0  0  0  0  0  0  0
   -0.4114    2.3085  -22.5800 C   0  0  0  0  0  0  0  0  0  0  0  0
   -0.4136    1.7642  -23.9778 C   0  0  0  0  0  0  0  0  0  0  0  0
   -1.5502    0.9048  -24.4464 C   0  0  0  0  0  0  0  0  0  0  0  0
   -2.6847    0.5896  -23.5171 C   0  0  0  0  0  0  0  0  0  0  0  0
   -2.6826    1.1338  -22.1193 C   0  0  0  0  0  0  0  0  0  0  0  0
   -9.9084   -3.2921  -23.7244 C   0  0  0  0  0  0  0  0  0  0  0  0
   -8.4141   -6.6636  -28.4572 C   0  0  0  0  0  0  0  0  0  0  0  0
   -8.7877   -5.8207  -27.2740 C   0  0  0  0  0  0  0  0  0  0  0  0
   -9.5342   -4.5352  -27.4747 C   0  0  0  0  0  0  0  0  0  0  0  0
   -9.9078   -3.6923  -26.2915 N   0  0  0  0  0  0  0  0  0  0  0  0
   -9.5348   -4.1350  -24.9076 C   0  0  0  0  0  0  0  0  0  0  0  0
   -8.7883   -5.4204  -24.7070 C   0  0  0  0  0  0  0  0  0  0  0  0
   -8.4147   -6.2633  -25.8902 N   0  0  0  0  0  0  0  0  0  0  0  0
 30 31  1  0  0  0
 31 32  2  0  0  0
 32 33  1  0  0  0
 33 34  2  0  0  0
 34 29  1  0  0  0
 29  1  1  0  0  0
  1  2  1  0  0  0
  3  2  1  0  0  0
  3  4  1  0  0  0
  4  5  2  0  0  0
  4  6  1  0  0  0
  6 19  1  0  0  0
 19 20  2  0  0  0
 20 21  1  0  0  0
 21 22  2  0  0  0
 22 23  1  0  0  0
 23 24  2  0  0  0
 24 25  1  0  0  0
 25 26  2  0  0  0
 26 27  1  0  0  0
 27 28  2  0  0  0
  6  7  1  0  0  0
  7  8  1  0  0  0
  8  9  1  0  0  0
  3 10  1  0  0  0
 10 11  2  0  0  0
 11 12  1  0  0  0
 12 13  1  0  0  0
 12 14  2  0  0  0
 14 15  1  0  0  0
 15 16  2  0  0  0
 16 17  1  0  0  0
 17 18  2  0  0  0
 34 35  1  0  0  0
 35 36  2  0  0  0
 36 31  1  0  0  0
 17  1  1  0  0  0
  8  3  1  0  0  0
 16 10  1  0  0  0
 28 19  1  0  0  0
 28 23  1  0  0  0
M  END
> <minimizedAffinity>
-7.87638

> <CNNscore>
0.2729035616

> <CNNaffinity>
6.2681608200

> <CNN_VS>
1.7106033564

> <CNNaffinity_variance>
0.1656606048

$$$$



 36 41  0  0  0  0  0  0  0  0999 V2000
  -11.5715    3.8487  -24.0566 N   0  0  0  0  0  0  0  0  0  0  0  0
  -10.1893    3.2759  -23.9502 C   0  0  0  0  0  0  0  0  0  0  0  0
  -10.0027    1.8139  -23.6714 C   0  0  0  0  0  0  0  0  0  0  0  0
   -9.6616    0.3790  -23.3982 C   0  0  0  0  0  0  0  0  0  0  0  0
  -10.2104   -0.6855  -23.1937 O   0  0  0  0  0  0  0  0  0  0  0  0
   -8.1670    0.2537  -23.3774 N   0  0  0  0  0  0  0  0  0  0  0  0
   -7.5843    1.6112  -23.6379 C   0  0  0  0  0  0  0  0  0  0  0  0
   -8.7189    2.5754  -23.8196 C   0  0  0  0  0  0  0  0  0  0  0  0
   -8.5919    4.0435  -24.1002 C   0  0  0  0  0  0  0  0  0  0  0  0
  -11.1984    0.9247  -23.4991 C   0  0  0  0  0  0  0  0  0  0  0  0
  -11.0118   -0.5373  -23.2203 C   0  0  0  0  0  0  0  0  0  0  0  0
  -12.2075   -1.4264  -23.0479 C   0  0  0  0  0  0  0  0  0  0  0  0
  -12.0210   -2.8885  -22.7692 F   0  0  0  0  0  0  0  0  0  0  0  0
  -13.5897   -0.8536  -23.1544 C   0  0  0  0  0  0  0  0  0  0  0  0
  -13.7763    0.6084  -23.4331 C   0  0  0  0  0  0  0  0  0  0  0  0
  -12.5806    1.4975  -23.6055 C   0  0  0  0  0  0  0  0  0  0  0  0
  -12.7672    2.9596  -23.8842 C   0  0  0  0  0  0  0  0  0  0  0  0
  -14.1494    3.5324  -23.9907 O   0  0  0  0  0  0  0  0  0  0  0  0
   -7.3912   -1.0076  -23.1382 C   0  0  0  0  0  0  0  0  0  0  0  0
   -7.1509   -1.9659  -24.2670 C   0  0  0  0  0  0  0  0  0  0  0  0
   -6.3752   -3.2272  -24.0278 N   0  0  0  0  0  0  0  0  0  0  0  0
   -5.8397   -3.5303  -22.6599 C   0  0  0  0  0  0  0  0  0  0  0  0
   -6.0800   -2.5721  -21.5311 C   0  0  0  0  0  0  0  0  0  0  0  0
   -5.5444   -2.8753  -20.1631 C   0  0  0  0  0  0  0  0  0  0  0  0
   -5.7847   -1.9170  -19.0344 C   0  0  0  0  0  0  0  0  0  0  0  0
   -6.5605   -0.6556  -19.2736 C   0  0  0  0  0  0  0  0  0  0  0  0
   -7.0960   -0.3525  -20.6415 C   0  0  0  0  0  0  0  0  0  0  0  0
   -6.8557   -1.3108  -21.7703 C   0  0  0  0  0  0  0  0  0  0  0  0
  -11.7580    5.3108  -24.3354 C   0  0  0  0  0  0  0  0  0  0  0  0
  -14.5378    7.0778  -29.3504 C   0  0  0  0  0  0  0  0  0  0  0  0
  -13.8428    6.6360  -28.0967 C   0  0  0  0  0  0  0  0  0  0  0  0
  -12.7704    5.5893  -28.1626 C   0  0  0  0  0  0  0  0  0  0  0  0
  -12.0755    5.1475  -26.9088 N   0  0  0  0  0  0  0  0  0  0  0  0
  -12.4530    5.7526  -25.5891 C   0  0  0  0  0  0  0  0  0  0  0  0
  -13.5253    6.7993  -25.5233 C   0  0  0  0  0  0  0  0  0  0  0  0
  -14.2203    7.2410  -26.7770 N   0  0  0  0  0  0  0  0  0  0  0  0
 30 31  1  0  0  0
 31 32  2  0  0  0
 32 33  1  0  0  0
 33 34  2  0  0  0
 34 29  1  0  0  0
 29  1  1  0  0  0
  1  2  1  0  0  0
  3  2  1  0  0  0
  3  4  1  0  0  0
  4  5  2  0  0  0
  4  6  1  0  0  0
  6 19  1  0  0  0
 19 20  2  0  0  0
 20 21  1  0  0  0
 21 22  2  0  0  0
 22 23  1  0  0  0
 23 24  2  0  0  0
 24 25  1  0  0  0
 25 26  2  0  0  0
 26 27  1  0  0  0
 27 28  2  0  0  0
  6  7  1  0  0  0
  7  8  1  0  0  0
  8  9  1  0  0  0
  3 10  1  0  0  0
 10 11  2  0  0  0
 11 12  1  0  0  0
 12 13  1  0  0  0
 12 14  2  0  0  0
 14 15  1  0  0  0
 15 16  2  0  0  0
 16 17  1  0  0  0
 17 18  2  0  0  0
 34 35  1  0  0  0
 35 36  2  0  0  0
 36 31  1  0  0  0
 17  1  1  0  0  0
  8  3  1  0  0  0
 16 10  1  0  0  0
 28 19  1  0  0  0
 28 23  1  0  0  0
M  END
> <minimizedAffinity>
-8.59611

> <CNNscore>
0.2047636211

> <CNNaffinity>
6.3543939590

> <CNN_VS>
1.3011487722

> <CNNaffinity_variance>
0.0634682849

$$$$
