


 36 41  0  0  0  0  0  0  0  0999 V2000
    3.8741   -4.9148   26.0112 N   0  0  0  0  0  0  0  0  0  0  0  0
    5.1635   -5.0418   25.2555 C   0  0  0  0  0  0  0  0  0  0  0  0
    6.1099   -3.8801   25.1864 C   0  0  0  0  0  0  0  0  0  0  0  0
    7.1496   -2.8101   25.0306 C   0  0  0  0  0  0  0  0  0  0  0  0
    7.3582   -1.6598   25.3614 O   0  0  0  0  0  0  0  0  0  0  0  0
    8.2683   -3.3680   24.2017 N   0  0  0  0  0  0  0  0  0  0  0  0
    7.9201   -4.7828   23.8451 C   0  0  0  0  0  0  0  0  0  0  0  0
    6.5861   -5.0992   24.4537 C   0  0  0  0  0  0  0  0  0  0  0  0
    5.8564   -6.4056   24.3481 C   0  0  0  0  0  0  0  0  0  0  0  0
    5.7667   -2.5913   25.8731 C   0  0  0  0  0  0  0  0  0  0  0  0
    6.7131   -1.4296   25.8040 C   0  0  0  0  0  0  0  0  0  0  0  0
    6.3699   -0.1409   26.4907 C   0  0  0  0  0  0  0  0  0  0  0  0
    7.3163    1.0209   26.4216 F   0  0  0  0  0  0  0  0  0  0  0  0
    5.0805   -0.0140   27.2464 C   0  0  0  0  0  0  0  0  0  0  0  0
    4.1341   -1.1757   27.3155 C   0  0  0  0  0  0  0  0  0  0  0  0
    4.4773   -2.4644   26.6288 C   0  0  0  0  0  0  0  0  0  0  0  0
    3.5309   -3.6262   26.6979 C   0  0  0  0  0  0  0  0  0  0  0  0
    2.2414   -3.4992   27.4536 O   0  0  0  0  0  0  0  0  0  0  0  0
    9.5162   -2.6392   23.7999 C   0  0  0  0  0  0  0  0  0  0  0  0
    9.5383   -1.8295   22.5373 C   0  0  0  0  0  0  0  0  0  0  0  0
   10.7862   -1.1006   22.1355 N   0  0  0  0  0  0  0  0  0  0  0  0
   12.0120   -1.1814   22.9963 C   0  0  0  0  0  0  0  0  0  0  0  0
   11.9899   -1.9910   24.2588 C   0  0  0  0  0  0  0  0  0  0  0  0
   13.2158   -2.0718   25.1196 C   0  0  0  0  0  0  0  0  0  0  0  0
   13.1936   -2.8814   26.3821 C   0  0  0  0  0  0  0  0  0  0  0  0
   11.9457   -3.6103   26.7839 C   0  0  0  0  0  0  0  0  0  0  0  0
   10.7199   -3.5296   25.9232 C   0  0  0  0  0  0  0  0  0  0  0  0
   10.7420   -2.7199   24.6606 C   0  0  0  0  0  0  0  0  0  0  0  0
    2.9277   -6.0766   26.0802 C   0  0  0  0  0  0  0  0  0  0  0  0
   -0.4331   -7.4955   21.3166 C   0  0  0  0  0  0  0  0  0  0  0  0
    0.4071   -7.1408   22.5075 C   0  0  0  0  0  0  0  0  0  0  0  0
    1.7874   -7.7110   22.6483 C   0  0  0  0  0  0  0  0  0  0  0  0
    2.6276   -7.3563   23.8392 N   0  0  0  0  0  0  0  0  0  0  0  0
    2.0875   -6.4314   24.8893 C   0  0  0  0  0  0  0  0  0  0  0  0
    0.7073   -5.8611   24.7486 C   0  0  0  0  0  0  0  0  0  0  0  0
   -0.1329   -6.2159   23.5577 N   0  0  0  0  0  0  0  0  0  0  0  0
 30 31  1  0  0  0
 31 32  2  0  0  0
 32 33  1  0  0  0
 33 34  2  0  0  0
 34 29  1  0  0  0
 29  1  1  0  0  0
  1  2  1  0  0  0
  3  2  1  0  0  0
  3  4  1  0  0  0
  4  5  2  0  0  0
  4  6  1  0  0  0
  6 19  1  0  0  0
 19 20  2  0  0  0
 20 21  1  0  0  0
 21 22  2  0  0  0
 22 23  1  0  0  0
 23 24  2  0  0  0
 24 25  1  0  0  0
 25 26  2  0  0  0
 26 27  1  0  0  0
 27 28  2  0  0  0
  6  7  1  0  0  0
  7  8  1  0  0  0
  8  9  1  0  0  0
  3 10  1  0  0  0
 10 11  2  0  0  0
 11 12  1  0  0  0
 12 13  1  0  0  0
 12 14  2  0  0  0
 14 15  1  0  0  0
 15 16  2  0  0  0
 16 17  1  0  0  0
 17 18  2  0  0  0
 34 35  1  0  0  0
 35 36  2  0  0  0
 36 31  1  0  0  0
 17  1  1  0  0  0
  8  3  1  0  0  0
 16 10  1  0  0  0
 28 19  1  0  0  0
 28 23  1  0  0  0
M  END
> <minimizedAffinity>
-7.89554

> <CNNscore>
0.2972390354

> <CNNaffinity>
6.5442633629

> <CNN_VS>
1.9452105761

> <CNNaffinity_variance>
0.0699336082

$$$$



 36 41  0  0  0  0  0  0  0  0999 V2000
    7.5748   -1.1996   24.3476 N   0  0  0  0  0  0  0  0  0  0  0  0
    7.5438    0.2859   24.1416 C   0  0  0  0  0  0  0  0  0  0  0  0
    8.7881    1.0110   23.7223 C   0  0  0  0  0  0  0  0  0  0  0  0
    9.9468    1.8677   23.3056 C   0  0  0  0  0  0  0  0  0  0  0  0
   11.1240    1.7674   23.0221 O   0  0  0  0  0  0  0  0  0  0  0  0
    9.4679    3.2868   23.2226 N   0  0  0  0  0  0  0  0  0  0  0  0
    8.0132    3.3071   23.5880 C   0  0  0  0  0  0  0  0  0  0  0  0
    7.5931    1.9006   23.8968 C   0  0  0  0  0  0  0  0  0  0  0  0
    6.2192    1.4610   24.3079 C   0  0  0  0  0  0  0  0  0  0  0  0
   10.0635    0.2507   23.5089 C   0  0  0  0  0  0  0  0  0  0  0  0
   11.3077    0.9758   23.0895 C   0  0  0  0  0  0  0  0  0  0  0  0
   12.5830    0.2154   22.8761 C   0  0  0  0  0  0  0  0  0  0  0  0
   13.8274    0.9405   22.4567 F   0  0  0  0  0  0  0  0  0  0  0  0
   12.6139   -1.2701   23.0821 C   0  0  0  0  0  0  0  0  0  0  0  0
   11.3696   -1.9952   23.5014 C   0  0  0  0  0  0  0  0  0  0  0  0
   10.0944   -1.2348   23.7148 C   0  0  0  0  0  0  0  0  0  0  0  0
    8.8500   -1.9599   24.1342 C   0  0  0  0  0  0  0  0  0  0  0  0
    8.8810   -3.4454   24.3402 O   0  0  0  0  0  0  0  0  0  0  0  0
   10.2979    4.4766   22.8412 C   0  0  0  0  0  0  0  0  0  0  0  0
   11.6264    4.2810   22.1726 C   0  0  0  0  0  0  0  0  0  0  0  0
   12.4564    5.4708   21.7913 N   0  0  0  0  0  0  0  0  0  0  0  0
   11.9580    6.8561   22.0785 C   0  0  0  0  0  0  0  0  0  0  0  0
   10.6295    7.0516   22.7471 C   0  0  0  0  0  0  0  0  0  0  0  0
   10.1311    8.4370   23.0343 C   0  0  0  0  0  0  0  0  0  0  0  0
    8.8026    8.6324   23.7029 C   0  0  0  0  0  0  0  0  0  0  0  0
    7.9726    7.4426   24.0843 C   0  0  0  0  0  0  0  0  0  0  0  0
    8.4710    6.0574   23.7971 C   0  0  0  0  0  0  0  0  0  0  0  0
    9.7995    5.8618   23.1285 C   0  0  0  0  0  0  0  0  0  0  0  0
    6.3304   -1.9247   24.7670 C   0  0  0  0  0  0  0  0  0  0  0  0
    5.1378   -2.7136   30.5941 C   0  0  0  0  0  0  0  0  0  0  0  0
    5.4359   -2.5163   29.1374 C   0  0  0  0  0  0  0  0  0  0  0  0
    6.5413   -3.2937   28.4861 C   0  0  0  0  0  0  0  0  0  0  0  0
    6.8394   -3.0965   27.0293 N   0  0  0  0  0  0  0  0  0  0  0  0
    6.0323   -2.1219   26.2238 C   0  0  0  0  0  0  0  0  0  0  0  0
    4.9270   -1.3446   26.8751 C   0  0  0  0  0  0  0  0  0  0  0  0
    4.6289   -1.5418   28.3319 N   0  0  0  0  0  0  0  0  0  0  0  0
 30 31  1  0  0  0
 31 32  2  0  0  0
 32 33  1  0  0  0
 33 34  2  0  0  0
 34 29  1  0  0  0
 29  1  1  0  0  0
  1  2  1  0  0  0
  3  2  1  0  0  0
  3  4  1  0  0  0
  4  5  2  0  0  0
  4  6  1  0  0  0
  6 19  1  0  0  0
 19 20  2  0  0  0
 20 21  1  0  0  0
 21 22  2  0  0  0
 22 23  1  0  0  0
 23 24  2  0  0  0
 24 25  1  0  0  0
 25 26  2  0  0  0
 26 27  1  0  0  0
 27 28  2  0  0  0
  6  7  1  0  0  0
  7  8  1  0  0  0
  8  9  1  0  0  0
  3 10  1  0  0  0
 10 11  2  0  0  0
 11 12  1  0  0  0
 12 13  1  0  0  0
 12 14  2  0  0  0
 14 15  1  0  0  0
 15 16  2  0  0  0
 16 17  1  0  0  0
 17 18  2  0  0  0
 34 35  1  0  0  0
 35 36  2  0  0  0
 36 31  1  0  0  0
 17  1  1  0  0  0
  8  3  1  0  0  0
 16 10  1  0  0  0
 28 19  1  0  0  0
 28 23  1  0  0  0
M  END
> <minimizedAffinity>
-7.86533

> <CNNscore>
0.2914978564

> <CNNaffinity>
6.6036386490

> <CNN_VS>
1.9249465466

> <CNNaffinity_variance>
0.1660194695

$$$$



 36 41  0  0  0  0  0  0  0  0999 V2000
    7.3728   -3.5551   23.3806 N   0  0  0  0  0  0  0  0  0  0  0  0
    7.4484   -2.1560   22.8451 C   0  0  0  0  0  0  0  0  0  0  0  0
    8.6069   -1.2753   23.2087 C   0  0  0  0  0  0  0  0  0  0  0  0
    9.6983   -0.2837   23.4837 C   0  0  0  0  0  0  0  0  0  0  0  0
   10.7397   -0.1937   24.1031 O   0  0  0  0  0  0  0  0  0  0  0  0
    9.3703    0.9823   22.7491 N   0  0  0  0  0  0  0  0  0  0  0  0
    8.0762    0.7732   22.0200 C   0  0  0  0  0  0  0  0  0  0  0  0
    7.6044   -0.6221   22.3041 C   0  0  0  0  0  0  0  0  0  0  0  0
    6.3503   -1.2533   21.7762 C   0  0  0  0  0  0  0  0  0  0  0  0
    9.6899   -1.7937   24.1079 C   0  0  0  0  0  0  0  0  0  0  0  0
   10.8484   -0.9130   24.4715 C   0  0  0  0  0  0  0  0  0  0  0  0
   11.9313   -1.4314   25.3707 C   0  0  0  0  0  0  0  0  0  0  0  0
   13.0899   -0.5507   25.7343 F   0  0  0  0  0  0  0  0  0  0  0  0
   11.8557   -2.8305   25.9062 C   0  0  0  0  0  0  0  0  0  0  0  0
   10.6972   -3.7112   25.5426 C   0  0  0  0  0  0  0  0  0  0  0  0
    9.6143   -3.1928   24.6434 C   0  0  0  0  0  0  0  0  0  0  0  0
    8.4557   -4.0735   24.2798 C   0  0  0  0  0  0  0  0  0  0  0  0
    8.3801   -5.4726   24.8153 O   0  0  0  0  0  0  0  0  0  0  0  0
   10.1921    2.2371   22.7444 C   0  0  0  0  0  0  0  0  0  0  0  0
   11.6712    2.1641   22.5055 C   0  0  0  0  0  0  0  0  0  0  0  0
   12.4930    3.4189   22.5007 N   0  0  0  0  0  0  0  0  0  0  0  0
   11.8358    4.7468   22.7350 C   0  0  0  0  0  0  0  0  0  0  0  0
   10.3567    4.8198   22.9739 C   0  0  0  0  0  0  0  0  0  0  0  0
    9.6994    6.1477   23.2081 C   0  0  0  0  0  0  0  0  0  0  0  0
    8.2204    6.2206   23.4471 C   0  0  0  0  0  0  0  0  0  0  0  0
    7.3986    4.9658   23.4518 C   0  0  0  0  0  0  0  0  0  0  0  0
    8.0558    3.6380   23.2175 C   0  0  0  0  0  0  0  0  0  0  0  0
    9.5349    3.5650   22.9786 C   0  0  0  0  0  0  0  0  0  0  0  0
    6.2143   -4.4358   23.0170 C   0  0  0  0  0  0  0  0  0  0  0  0
    3.7444   -8.0063   27.1584 C   0  0  0  0  0  0  0  0  0  0  0  0
    4.3619   -7.1136   26.1230 C   0  0  0  0  0  0  0  0  0  0  0  0
    4.3135   -5.6239   26.2920 C   0  0  0  0  0  0  0  0  0  0  0  0
    4.9309   -4.7313   25.2566 N   0  0  0  0  0  0  0  0  0  0  0  0
    5.5968   -5.3284   24.0523 C   0  0  0  0  0  0  0  0  0  0  0  0
    5.6452   -6.8180   23.8835 C   0  0  0  0  0  0  0  0  0  0  0  0
    5.0277   -7.7107   24.9188 N   0  0  0  0  0  0  0  0  0  0  0  0
 30 31  1  0  0  0
 31 32  2  0  0  0
 32 33  1  0  0  0
 33 34  2  0  0  0
 34 29  1  0  0  0
 29  1  1  0  0  0
  1  2  1  0  0  0
  3  2  1  0  0  0
  3  4  1  0  0  0
  4  5  2  0  0  0
  4  6  1  0  0  0
  6 19  1  0  0  0
 19 20  2  0  0  0
 20 21  1  0  0  0
 21 22  2  0  0  0
 22 23  1  0  0  0
 23 24  2  0  0  0
 24 25  1  0  0  0
 25 26  2  0  0  0
 26 27  1  0  0  0
 27 28  2  0  0  0
  6  7  1  0  0  0
  7  8  1  0  0  0
  8  9  1  0  0  0
  3 10  1  0  0  0
 10 11  2  0  0  0
 11 12  1  0  0  0
 12 13  1  0  0  0
 12 14  2  0  0  0
 14 15  1  0  0  0
 15 16  2  0  0  0
 16 17  1  0  0  0
 17 18  2  0  0  0
 34 35  1  0  0  0
 35 36  2  0  0  0
 36 31  1  0  0  0
 17  1  1  0  0  0
  8  3  1  0  0  0
 16 10  1  0  0  0
 28 19  1  0  0  0
 28 23  1  0  0  0
M  END
> <minimizedAffinity>
-8.34189

> <CNNscore>
0.2825761735

> <CNNaffinity>
6.5955405235

> <CNN_VS>
1.8637425900

> <CNNaffinity_variance>
0.2034827173

$$$$



 36 41  0  0  0  0  0  0  0  0999 V2000
   10.3878   -0.1101   22.8862 N   0  0  0  0  0  0  0  0  0  0  0  0
    9.1805   -0.9825   22.7084 C   0  0  0  0  0  0  0  0  0  0  0  0
    9.0263   -2.2266   23.5320 C   0  0  0  0  0  0  0  0  0  0  0  0
    8.7366   -3.4941   24.2799 C   0  0  0  0  0  0  0  0  0  0  0  0
    9.2241   -4.1988   25.1413 O   0  0  0  0  0  0  0  0  0  0  0  0
    7.4281   -4.0355   23.7852 N   0  0  0  0  0  0  0  0  0  0  0  0
    6.9091   -3.1025   22.7315 C   0  0  0  0  0  0  0  0  0  0  0  0
    7.8969   -1.9846   22.5750 C   0  0  0  0  0  0  0  0  0  0  0  0
    7.7764   -0.8277   21.6279 C   0  0  0  0  0  0  0  0  0  0  0  0
   10.0794   -2.5984   24.5334 C   0  0  0  0  0  0  0  0  0  0  0  0
    9.9252   -3.8426   25.3570 C   0  0  0  0  0  0  0  0  0  0  0  0
   10.9783   -4.2144   26.3584 C   0  0  0  0  0  0  0  0  0  0  0  0
   10.8241   -5.4586   27.1820 F   0  0  0  0  0  0  0  0  0  0  0  0
   12.1855   -3.3420   26.5362 C   0  0  0  0  0  0  0  0  0  0  0  0
   12.3397   -2.0979   25.7127 C   0  0  0  0  0  0  0  0  0  0  0  0
   11.2866   -1.7261   24.7113 C   0  0  0  0  0  0  0  0  0  0  0  0
   11.4408   -0.4819   23.8876 C   0  0  0  0  0  0  0  0  0  0  0  0
   12.6480    0.3904   24.0655 O   0  0  0  0  0  0  0  0  0  0  0  0
    6.7565   -5.2896   24.2606 C   0  0  0  0  0  0  0  0  0  0  0  0
    7.2484   -6.6274   23.7932 C   0  0  0  0  0  0  0  0  0  0  0  0
    6.5768   -7.8815   24.2687 N   0  0  0  0  0  0  0  0  0  0  0  0
    5.4132   -7.7979   25.2116 C   0  0  0  0  0  0  0  0  0  0  0  0
    4.9213   -6.4601   25.6791 C   0  0  0  0  0  0  0  0  0  0  0  0
    3.7577   -6.3766   26.6220 C   0  0  0  0  0  0  0  0  0  0  0  0
    3.2658   -5.0388   27.0894 C   0  0  0  0  0  0  0  0  0  0  0  0
    3.9374   -3.7847   26.6139 C   0  0  0  0  0  0  0  0  0  0  0  0
    5.1009   -3.8683   25.6710 C   0  0  0  0  0  0  0  0  0  0  0  0
    5.5929   -5.2060   25.2036 C   0  0  0  0  0  0  0  0  0  0  0  0
   10.5419    1.1341   22.0626 C   0  0  0  0  0  0  0  0  0  0  0  0
    8.0136    6.2644   23.8758 C   0  0  0  0  0  0  0  0  0  0  0  0
    8.6457    4.9818   23.4225 C   0  0  0  0  0  0  0  0  0  0  0  0
    7.8310    3.7236   23.3646 C   0  0  0  0  0  0  0  0  0  0  0  0
    8.4631    2.4411   22.9113 N   0  0  0  0  0  0  0  0  0  0  0  0
    9.9099    2.4167   22.5159 C   0  0  0  0  0  0  0  0  0  0  0  0
   10.7245    3.6748   22.5738 C   0  0  0  0  0  0  0  0  0  0  0  0
   10.0924    4.9574   23.0271 N   0  0  0  0  0  0  0  0  0  0  0  0
 30 31  1  0  0  0
 31 32  2  0  0  0
 32 33  1  0  0  0
 33 34  2  0  0  0
 34 29  1  0  0  0
 29  1  1  0  0  0
  1  2  1  0  0  0
  3  2  1  0  0  0
  3  4  1  0  0  0
  4  5  2  0  0  0
  4  6  1  0  0  0
  6 19  1  0  0  0
 19 20  2  0  0  0
 20 21  1  0  0  0
 21 22  2  0  0  0
 22 23  1  0  0  0
 23 24  2  0  0  0
 24 25  1  0  0  0
 25 26  2  0  0  0
 26 27  1  0  0  0
 27 28  2  0  0  0
  6  7  1  0  0  0
  7  8  1  0  0  0
  8  9  1  0  0  0
  3 10  1  0  0  0
 10 11  2  0  0  0
 11 12  1  0  0  0
 12 13  1  0  0  0
 12 14  2  0  0  0
 14 15  1  0  0  0
 15 16  2  0  0  0
 16 17  1  0  0  0
 17 18  2  0  0  0
 34 35  1  0  0  0
 35 36  2  0  0  0
 36 31  1  0  0  0
 17  1  1  0  0  0
  8  3  1  0  0  0
 16 10  1  0  0  0
 28 19  1  0  0  0
 28 23  1  0  0  0
M  END
> <minimizedAffinity>
-8.82690

> <CNNscore>
0.2468334734

> <CNNaffinity>
6.7925696373

> <CNN_VS>
1.6766335964

> <CNNaffinity_variance>
0.1538674533

$$$$



 36 41  0  0  0  0  0  0  0  0999 V2000
   10.3568    0.4215   23.2131 N   0  0  0  0  0  0  0  0  0  0  0  0
    8.9791    0.0426   23.6696 C   0  0  0  0  0  0  0  0  0  0  0  0
    8.7998   -1.0305   24.7021 C   0  0  0  0  0  0  0  0  0  0  0  0
    8.4660   -2.0787   25.7218 C   0  0  0  0  0  0  0  0  0  0  0  0
    9.0192   -2.8818   26.4466 O   0  0  0  0  0  0  0  0  0  0  0  0
    6.9739   -2.1237   25.8690 N   0  0  0  0  0  0  0  0  0  0  0  0
    6.3855   -1.1034   24.9402 C   0  0  0  0  0  0  0  0  0  0  0  0
    7.5140   -0.4277   24.2191 C   0  0  0  0  0  0  0  0  0  0  0  0
    7.3801    0.6598   23.1947 C   0  0  0  0  0  0  0  0  0  0  0  0
    9.9982   -1.7248   25.2783 C   0  0  0  0  0  0  0  0  0  0  0  0
    9.8189   -2.7979   26.3108 C   0  0  0  0  0  0  0  0  0  0  0  0
   11.0173   -3.4921   26.8869 C   0  0  0  0  0  0  0  0  0  0  0  0
   10.8380   -4.5653   27.9195 F   0  0  0  0  0  0  0  0  0  0  0  0
   12.3950   -3.1132   26.4304 C   0  0  0  0  0  0  0  0  0  0  0  0
   12.5743   -2.0401   25.3978 C   0  0  0  0  0  0  0  0  0  0  0  0
   11.3759   -1.3459   24.8218 C   0  0  0  0  0  0  0  0  0  0  0  0
   11.5552   -0.2727   23.7891 C   0  0  0  0  0  0  0  0  0  0  0  0
   12.9329    0.1061   23.3326 O   0  0  0  0  0  0  0  0  0  0  0  0
    6.2052   -3.0300   26.7843 C   0  0  0  0  0  0  0  0  0  0  0  0
    6.1667   -2.7509   28.2576 C   0  0  0  0  0  0  0  0  0  0  0  0
    5.3979   -3.6572   29.1728 N   0  0  0  0  0  0  0  0  0  0  0  0
    4.6677   -4.8426   28.6148 C   0  0  0  0  0  0  0  0  0  0  0  0
    4.7062   -5.1218   27.1415 C   0  0  0  0  0  0  0  0  0  0  0  0
    3.9760   -6.3073   26.5834 C   0  0  0  0  0  0  0  0  0  0  0  0
    4.0145   -6.5864   25.1101 C   0  0  0  0  0  0  0  0  0  0  0  0
    4.7833   -5.6801   24.1948 C   0  0  0  0  0  0  0  0  0  0  0  0
    5.5135   -4.4947   24.7529 C   0  0  0  0  0  0  0  0  0  0  0  0
    5.4750   -4.2155   26.2262 C   0  0  0  0  0  0  0  0  0  0  0  0
   10.5361    1.4946   22.1804 C   0  0  0  0  0  0  0  0  0  0  0  0
    9.9250    7.2636   23.7119 C   0  0  0  0  0  0  0  0  0  0  0  0
   10.0777    5.8214   23.3290 C   0  0  0  0  0  0  0  0  0  0  0  0
   11.4297    5.2800   22.9695 C   0  0  0  0  0  0  0  0  0  0  0  0
   11.5825    3.8378   22.5866 N   0  0  0  0  0  0  0  0  0  0  0  0
   10.3833    2.9369   22.5633 C   0  0  0  0  0  0  0  0  0  0  0  0
    9.0314    3.4783   22.9228 C   0  0  0  0  0  0  0  0  0  0  0  0
    8.8787    4.9205   23.3057 N   0  0  0  0  0  0  0  0  0  0  0  0
 30 31  1  0  0  0
 31 32  2  0  0  0
 32 33  1  0  0  0
 33 34  2  0  0  0
 34 29  1  0  0  0
 29  1  1  0  0  0
  1  2  1  0  0  0
  3  2  1  0  0  0
  3  4  1  0  0  0
  4  5  2  0  0  0
  4  6  1  0  0  0
  6 19  1  0  0  0
 19 20  2  0  0  0
 20 21  1  0  0  0
 21 22  2  0  0  0
 22 23  1  0  0  0
 23 24  2  0  0  0
 24 25  1  0  0  0
 25 26  2  0  0  0
 26 27  1  0  0  0
 27 28  2  0  0  0
  6  7  1  0  0  0
  7  8  1  0  0  0
  8  9  1  0  0  0
  3 10  1  0  0  0
 10 11  2  0  0  0
 11 12  1  0  0  0
 12 13  1  0  0  0
 12 14  2  0  0  0
 14 15  1  0  0  0
 15 16  2  0  0  0
 16 17  1  0  0  0
 17 18  2  0  0  0
 34 35  1  0  0  0
 35 36  2  0  0  0
 36 31  1  0  0  0
 17  1  1  0  0  0
  8  3  1  0  0  0
 16 10  1  0  0  0
 28 19  1  0  0  0
 28 23  1  0  0  0
M  END
> <minimizedAffinity>
-8.11820

> <CNNscore>
0.2129068226

> <CNNaffinity>
6.6665291786

> <CNN_VS>
1.4193495512

> <CNNaffinity_variance>
0.2232108414

$$$$



 36 41  0  0  0  0  0  0  0  0999 V2000
   10.4125    0.4248   23.1709 N   0  0  0  0  0  0  0  0  0  0  0  0
    9.0228   -0.1135   23.3407 C   0  0  0  0  0  0  0  0  0  0  0  0
    8.7692   -1.2509   24.2851 C   0  0  0  0  0  0  0  0  0  0  0  0
    8.3646   -2.3785   25.1878 C   0  0  0  0  0  0  0  0  0  0  0  0
    8.8549   -3.1583   25.9802 O   0  0  0  0  0  0  0  0  0  0  0  0
    6.8854   -2.5806   25.0426 N   0  0  0  0  0  0  0  0  0  0  0  0
    6.3758   -1.5780   24.0502 C   0  0  0  0  0  0  0  0  0  0  0  0
    7.5400   -0.7562   23.5820 C   0  0  0  0  0  0  0  0  0  0  0  0
    7.4848    0.3637   22.5856 C   0  0  0  0  0  0  0  0  0  0  0  0
    9.9055   -1.8501   25.0597 C   0  0  0  0  0  0  0  0  0  0  0  0
    9.6519   -2.9876   26.0041 C   0  0  0  0  0  0  0  0  0  0  0  0
   10.7882   -3.5867   26.7786 C   0  0  0  0  0  0  0  0  0  0  0  0
   10.5347   -4.7242   27.7231 F   0  0  0  0  0  0  0  0  0  0  0  0
   12.1779   -3.0484   26.6088 C   0  0  0  0  0  0  0  0  0  0  0  0
   12.4314   -1.9110   25.6645 C   0  0  0  0  0  0  0  0  0  0  0  0
   11.2952   -1.3118   24.8899 C   0  0  0  0  0  0  0  0  0  0  0  0
   11.5487   -0.1743   23.9455 C   0  0  0  0  0  0  0  0  0  0  0  0
   12.9385    0.3640   23.7756 O   0  0  0  0  0  0  0  0  0  0  0  0
    6.0607   -3.6055   25.7634 C   0  0  0  0  0  0  0  0  0  0  0  0
    5.6739   -4.8788   25.0712 C   0  0  0  0  0  0  0  0  0  0  0  0
    4.8491   -5.9036   25.7919 N   0  0  0  0  0  0  0  0  0  0  0  0
    4.4112   -5.6551   27.2049 C   0  0  0  0  0  0  0  0  0  0  0  0
    4.7980   -4.3818   27.8971 C   0  0  0  0  0  0  0  0  0  0  0  0
    4.3600   -4.1334   29.3101 C   0  0  0  0  0  0  0  0  0  0  0  0
    4.7468   -2.8601   30.0022 C   0  0  0  0  0  0  0  0  0  0  0  0
    5.5716   -1.8352   29.2815 C   0  0  0  0  0  0  0  0  0  0  0  0
    6.0095   -2.0837   27.8685 C   0  0  0  0  0  0  0  0  0  0  0  0
    5.6227   -3.3570   27.1763 C   0  0  0  0  0  0  0  0  0  0  0  0
   10.6660    1.5623   22.2264 C   0  0  0  0  0  0  0  0  0  0  0  0
    9.0062    7.1307   23.7228 C   0  0  0  0  0  0  0  0  0  0  0  0
    9.4212    5.7386   23.3487 C   0  0  0  0  0  0  0  0  0  0  0  0
    8.4125    4.6283   23.3544 C   0  0  0  0  0  0  0  0  0  0  0  0
    8.8275    3.2362   22.9803 N   0  0  0  0  0  0  0  0  0  0  0  0
   10.2511    2.9544   22.6005 C   0  0  0  0  0  0  0  0  0  0  0  0
   11.2596    4.0647   22.5949 C   0  0  0  0  0  0  0  0  0  0  0  0
   10.8447    5.4568   22.9690 N   0  0  0  0  0  0  0  0  0  0  0  0
 30 31  1  0  0  0
 31 32  2  0  0  0
 32 33  1  0  0  0
 33 34  2  0  0  0
 34 29  1  0  0  0
 29  1  1  0  0  0
  1  2  1  0  0  0
  3  2  1  0  0  0
  3  4  1  0  0  0
  4  5  2  0  0  0
  4  6  1  0  0  0
  6 19  1  0  0  0
 19 20  2  0  0  0
 20 21  1  0  0  0
 21 22  2  0  0  0
 22 23  1  0  0  0
 23 24  2  0  0  0
 24 25  1  0  0  0
 25 26  2  0  0  0
 26 27  1  0  0  0
 27 28  2  0  0  0
  6  7  1  0  0  0
  7  8  1  0  0  0
  8  9  1  0  0  0
  3 10  1  0  0  0
 10 11  2  0  0  0
 11 12  1  0  0  0
 12 13  1  0  0  0
 12 14  2  0  0  0
 14 15  1  0  0  0
 15 16  2  0  0  0
 16 17  1  0  0  0
 17 18  2  0  0  0
 34 35  1  0  0  0
 35 36  2  0  0  0
 36 31  1  0  0  0
 17  1  1  0  0  0
  8  3  1  0  0  0
 16 10  1  0  0  0
 28 19  1  0  0  0
 28 23  1  0  0  0
M  END
> <minimizedAffinity>
-8.00106

> <CNNscore>
0.2019463032

> <CNNaffinity>
6.6570558548

> <CNN_VS>
1.3443678617

> <CNNaffinity_variance>
0.1801173985

$$$$



 36 41  0  0  0  0  0  0  0  0999 V2000
    7.9090   -1.2076   24.2853 N   0  0  0  0  0  0  0  0  0  0  0  0
    7.8065    0.2776   24.1022 C   0  0  0  0  0  0  0  0  0  0  0  0
    9.0099    1.0658   23.6773 C   0  0  0  0  0  0  0  0  0  0  0  0
   10.1217    1.9813   23.2583 C   0  0  0  0  0  0  0  0  0  0  0  0
   11.2983    1.9399   22.9575 O   0  0  0  0  0  0  0  0  0  0  0  0
    9.5765    3.3776   23.2031 N   0  0  0  0  0  0  0  0  0  0  0  0
    8.1277    3.3251   23.5880 C   0  0  0  0  0  0  0  0  0  0  0  0
    7.7776    1.8963   23.8811 C   0  0  0  0  0  0  0  0  0  0  0  0
    6.4313    1.3874   24.3038 C   0  0  0  0  0  0  0  0  0  0  0  0
   10.3159    0.3687   23.4355 C   0  0  0  0  0  0  0  0  0  0  0  0
   11.5193    1.1568   23.0105 C   0  0  0  0  0  0  0  0  0  0  0  0
   12.8253    0.4597   22.7687 C   0  0  0  0  0  0  0  0  0  0  0  0
   14.0288    1.2478   22.3438 F   0  0  0  0  0  0  0  0  0  0  0  0
   12.9278   -1.0256   22.9518 C   0  0  0  0  0  0  0  0  0  0  0  0
   11.7244   -1.8137   23.3767 C   0  0  0  0  0  0  0  0  0  0  0  0
   10.4185   -1.1166   23.6185 C   0  0  0  0  0  0  0  0  0  0  0  0
    9.2149   -1.9047   24.0435 C   0  0  0  0  0  0  0  0  0  0  0  0
    9.3175   -3.3900   24.2266 O   0  0  0  0  0  0  0  0  0  0  0  0
   10.3452    4.6101   22.8287 C   0  0  0  0  0  0  0  0  0  0  0  0
   11.6663    4.4865   22.1290 C   0  0  0  0  0  0  0  0  0  0  0  0
   12.4349    5.7189   21.7546 N   0  0  0  0  0  0  0  0  0  0  0  0
   11.8826    7.0750   22.0799 C   0  0  0  0  0  0  0  0  0  0  0  0
   10.5615    7.1987   22.7796 C   0  0  0  0  0  0  0  0  0  0  0  0
   10.0091    8.5549   23.1049 C   0  0  0  0  0  0  0  0  0  0  0  0
    8.6881    8.6784   23.8047 C   0  0  0  0  0  0  0  0  0  0  0  0
    7.9194    7.4459   24.1790 C   0  0  0  0  0  0  0  0  0  0  0  0
    8.4718    6.0898   23.8537 C   0  0  0  0  0  0  0  0  0  0  0  0
    9.7928    5.9662   23.1540 C   0  0  0  0  0  0  0  0  0  0  0  0
    6.7055   -1.9958   24.7103 C   0  0  0  0  0  0  0  0  0  0  0  0
    4.9063   -6.7091   21.4625 C   0  0  0  0  0  0  0  0  0  0  0  0
    5.3561   -5.5307   22.2745 C   0  0  0  0  0  0  0  0  0  0  0  0
    5.7925   -5.7226   23.6968 C   0  0  0  0  0  0  0  0  0  0  0  0
    6.2423   -4.5443   24.5087 N   0  0  0  0  0  0  0  0  0  0  0  0
    6.2557   -3.1741   23.8983 C   0  0  0  0  0  0  0  0  0  0  0  0
    5.8194   -2.9823   22.4761 C   0  0  0  0  0  0  0  0  0  0  0  0
    5.3696   -4.1606   21.6642 N   0  0  0  0  0  0  0  0  0  0  0  0
 30 31  1  0  0  0
 31 32  2  0  0  0
 32 33  1  0  0  0
 33 34  2  0  0  0
 34 29  1  0  0  0
 29  1  1  0  0  0
  1  2  1  0  0  0
  3  2  1  0  0  0
  3  4  1  0  0  0
  4  5  2  0  0  0
  4  6  1  0  0  0
  6 19  1  0  0  0
 19 20  2  0  0  0
 20 21  1  0  0  0
 21 22  2  0  0  0
 22 23  1  0  0  0
 23 24  2  0  0  0
 24 25  1  0  0  0
 25 26  2  0  0  0
 26 27  1  0  0  0
 27 28  2  0  0  0
  6  7  1  0  0  0
  7  8  1  0  0  0
  8  9  1  0  0  0
  3 10  1  0  0  0
 10 11  2  0  0  0
 11 12  1  0  0  0
 12 13  1  0  0  0
 12 14  2  0  0  0
 14 15  1  0  0  0
 15 16  2  0  0  0
 16 17  1  0  0  0
 17 18  2  0  0  0
 34 35  1  0  0  0
 35 36  2  0  0  0
 36 31  1  0  0  0
 17  1  1  0  0  0
  8  3  1  0  0  0
 16 10  1  0  0  0
 28 19  1  0  0  0
 28 23  1  0  0  0
M  END
> <minimizedAffinity>
-8.24325

> <CNNscore>
0.1884353906

> <CNNaffinity>
6.6734037399

> <CNN_VS>
1.2575054169

> <CNNaffinity_variance>
0.0409336910

$$$$



 36 41  0  0  0  0  0  0  0  0999 V2000
    9.7778    0.4088   23.8134 N   0  0  0  0  0  0  0  0  0  0  0  0
    8.4185   -0.0582   24.2427 C   0  0  0  0  0  0  0  0  0  0  0  0
    8.2847   -1.2518   25.1412 C   0  0  0  0  0  0  0  0  0  0  0  0
    7.9957   -2.4232   26.0324 C   0  0  0  0  0  0  0  0  0  0  0  0
    8.5818   -3.2927   26.6463 O   0  0  0  0  0  0  0  0  0  0  0  0
    6.5082   -2.5248   26.1967 N   0  0  0  0  0  0  0  0  0  0  0  0
    5.8779   -1.4162   25.4070 C   0  0  0  0  0  0  0  0  0  0  0  0
    6.9758   -0.6294   24.7547 C   0  0  0  0  0  0  0  0  0  0  0  0
    6.7964    0.5693   23.8709 C   0  0  0  0  0  0  0  0  0  0  0  0
    9.5103   -1.9785   25.6105 C   0  0  0  0  0  0  0  0  0  0  0  0
    9.3765   -3.1720   26.5090 C   0  0  0  0  0  0  0  0  0  0  0  0
   10.6020   -3.8986   26.9782 C   0  0  0  0  0  0  0  0  0  0  0  0
   10.4682   -5.0923   27.8768 F   0  0  0  0  0  0  0  0  0  0  0  0
   11.9612   -3.4316   26.5490 C   0  0  0  0  0  0  0  0  0  0  0  0
   12.0950   -2.2380   25.6504 C   0  0  0  0  0  0  0  0  0  0  0  0
   10.8695   -1.5114   25.1812 C   0  0  0  0  0  0  0  0  0  0  0  0
   11.0033   -0.3178   24.2826 C   0  0  0  0  0  0  0  0  0  0  0  0
   12.3626    0.1492   23.8533 O   0  0  0  0  0  0  0  0  0  0  0  0
    5.7790   -3.5543   27.0081 C   0  0  0  0  0  0  0  0  0  0  0  0
    5.5683   -3.3395   28.4777 C   0  0  0  0  0  0  0  0  0  0  0  0
    4.8392   -4.3690   29.2892 N   0  0  0  0  0  0  0  0  0  0  0  0
    4.3207   -5.6132   28.6311 C   0  0  0  0  0  0  0  0  0  0  0  0
    4.5314   -5.8280   27.1615 C   0  0  0  0  0  0  0  0  0  0  0  0
    4.0128   -7.0723   26.5035 C   0  0  0  0  0  0  0  0  0  0  0  0
    4.2236   -7.2869   25.0339 C   0  0  0  0  0  0  0  0  0  0  0  0
    4.9527   -6.2574   24.2225 C   0  0  0  0  0  0  0  0  0  0  0  0
    5.4712   -5.0132   24.8805 C   0  0  0  0  0  0  0  0  0  0  0  0
    5.2605   -4.7985   26.3501 C   0  0  0  0  0  0  0  0  0  0  0  0
    9.9115    1.6025   22.9148 C   0  0  0  0  0  0  0  0  0  0  0  0
    5.0660    4.8396   21.4858 C   0  0  0  0  0  0  0  0  0  0  0  0
    6.2774    4.0303   21.8431 C   0  0  0  0  0  0  0  0  0  0  0  0
    6.6241    2.8075   21.0464 C   0  0  0  0  0  0  0  0  0  0  0  0
    7.8355    1.9982   21.4037 N   0  0  0  0  0  0  0  0  0  0  0  0
    8.7002    2.4117   22.5576 C   0  0  0  0  0  0  0  0  0  0  0  0
    8.3534    3.6345   23.3541 C   0  0  0  0  0  0  0  0  0  0  0  0
    7.1421    4.4438   22.9969 N   0  0  0  0  0  0  0  0  0  0  0  0
 30 31  1  0  0  0
 31 32  2  0  0  0
 32 33  1  0  0  0
 33 34  2  0  0  0
 34 29  1  0  0  0
 29  1  1  0  0  0
  1  2  1  0  0  0
  3  2  1  0  0  0
  3  4  1  0  0  0
  4  5  2  0  0  0
  4  6  1  0  0  0
  6 19  1  0  0  0
 19 20  2  0  0  0
 20 21  1  0  0  0
 21 22  2  0  0  0
 22 23  1  0  0  0
 23 24  2  0  0  0
 24 25  1  0  0  0
 25 26  2  0  0  0
 26 27  1  0  0  0
 27 28  2  0  0  0
  6  7  1  0  0  0
  7  8  1  0  0  0
  8  9  1  0  0  0
  3 10  1  0  0  0
 10 11  2  0  0  0
 11 12  1  0  0  0
 12 13  1  0  0  0
 12 14  2  0  0  0
 14 15  1  0  0  0
 15 16  2  0  0  0
 16 17  1  0  0  0
 17 18  2  0  0  0
 34 35  1  0  0  0
 35 36  2  0  0  0
 36 31  1  0  0  0
 17  1  1  0  0  0
  8  3  1  0  0  0
 16 10  1  0  0  0
 28 19  1  0  0  0
 28 23  1  0  0  0
M  END
> <minimizedAffinity>
-8.15197

> <CNNscore>
0.1734931469

> <CNNaffinity>
6.5110220909

> <CNN_VS>
1.1296176910

> <CNNaffinity_variance>
0.1472125649

$$$$



 36 41  0  0  0  0  0  0  0  0999 V2000
    6.2946    1.6090   21.5243 N   0  0  0  0  0  0  0  0  0  0  0  0
    7.6121    1.5820   22.2408 C   0  0  0  0  0  0  0  0  0  0  0  0
    8.1693    0.2808   22.7373 C   0  0  0  0  0  0  0  0  0  0  0  0
    8.8488   -0.9379   23.2877 C   0  0  0  0  0  0  0  0  0  0  0  0
    8.6796   -2.1379   23.3763 O   0  0  0  0  0  0  0  0  0  0  0  0
   10.1381   -0.5042   23.9198 N   0  0  0  0  0  0  0  0  0  0  0  0
   10.2555    0.9827   23.7601 C   0  0  0  0  0  0  0  0  0  0  0  0
    9.0386    1.4678   23.0293 C   0  0  0  0  0  0  0  0  0  0  0  0
    8.7431    2.8903   22.6561 C   0  0  0  0  0  0  0  0  0  0  0  0
    7.4089   -0.9934   22.5174 C   0  0  0  0  0  0  0  0  0  0  0  0
    7.9660   -2.2945   23.0139 C   0  0  0  0  0  0  0  0  0  0  0  0
    7.2057   -3.5686   22.7940 C   0  0  0  0  0  0  0  0  0  0  0  0
    7.7628   -4.8698   23.2905 F   0  0  0  0  0  0  0  0  0  0  0  0
    5.8881   -3.5416   22.0775 C   0  0  0  0  0  0  0  0  0  0  0  0
    5.3310   -2.2404   21.5809 C   0  0  0  0  0  0  0  0  0  0  0  0
    6.0914   -0.9663   21.8009 C   0  0  0  0  0  0  0  0  0  0  0  0
    5.5342    0.3349   21.3043 C   0  0  0  0  0  0  0  0  0  0  0  0
    4.2167    0.3619   20.5878 O   0  0  0  0  0  0  0  0  0  0  0  0
   11.1350   -1.4000   24.5933 C   0  0  0  0  0  0  0  0  0  0  0  0
   12.5711   -1.3833   24.1603 C   0  0  0  0  0  0  0  0  0  0  0  0
   13.5680   -2.2792   24.8338 N   0  0  0  0  0  0  0  0  0  0  0  0
   13.1288   -3.1917   25.9404 C   0  0  0  0  0  0  0  0  0  0  0  0
   11.6928   -3.2083   26.3734 C   0  0  0  0  0  0  0  0  0  0  0  0
   11.2536   -4.1209   27.4800 C   0  0  0  0  0  0  0  0  0  0  0  0
    9.8176   -4.1375   27.9130 C   0  0  0  0  0  0  0  0  0  0  0  0
    8.8207   -3.2416   27.2395 C   0  0  0  0  0  0  0  0  0  0  0  0
    9.2598   -2.3291   26.1329 C   0  0  0  0  0  0  0  0  0  0  0  0
   10.6959   -2.3125   25.6999 C   0  0  0  0  0  0  0  0  0  0  0  0
    5.7375    2.9102   21.0277 C   0  0  0  0  0  0  0  0  0  0  0  0
   -0.1926    3.6015   20.4302 C   0  0  0  0  0  0  0  0  0  0  0  0
    1.2899    3.4287   20.5796 C   0  0  0  0  0  0  0  0  0  0  0  0
    2.1286    3.0812   19.3854 C   0  0  0  0  0  0  0  0  0  0  0  0
    3.6111    2.9084   19.5348 N   0  0  0  0  0  0  0  0  0  0  0  0
    4.2550    3.0830   20.8784 C   0  0  0  0  0  0  0  0  0  0  0  0
    3.4163    3.4305   22.0724 C   0  0  0  0  0  0  0  0  0  0  0  0
    1.9338    3.6033   21.9231 N   0  0  0  0  0  0  0  0  0  0  0  0
 30 31  1  0  0  0
 31 32  2  0  0  0
 32 33  1  0  0  0
 33 34  2  0  0  0
 34 29  1  0  0  0
 29  1  1  0  0  0
  1  2  1  0  0  0
  3  2  1  0  0  0
  3  4  1  0  0  0
  4  5  2  0  0  0
  4  6  1  0  0  0
  6 19  1  0  0  0
 19 20  2  0  0  0
 20 21  1  0  0  0
 21 22  2  0  0  0
 22 23  1  0  0  0
 23 24  2  0  0  0
 24 25  1  0  0  0
 25 26  2  0  0  0
 26 27  1  0  0  0
 27 28  2  0  0  0
  6  7  1  0  0  0
  7  8  1  0  0  0
  8  9  1  0  0  0
  3 10  1  0  0  0
 10 11  2  0  0  0
 11 12  1  0  0  0
 12 13  1  0  0  0
 12 14  2  0  0  0
 14 15  1  0  0  0
 15 16  2  0  0  0
 16 17  1  0  0  0
 17 18  2  0  0  0
 34 35  1  0  0  0
 35 36  2  0  0  0
 36 31  1  0  0  0
 17  1  1  0  0  0
  8  3  1  0  0  0
 16 10  1  0  0  0
 28 19  1  0  0  0
 28 23  1  0  0  0
M  END
> <minimizedAffinity>
-8.10822

> <CNNscore>
0.1632355154

> <CNNaffinity>
6.5552520752

> <CNN_VS>
1.0700500011

> <CNNaffinity_variance>
0.0631108433

$$$$
