


 38 43  0  0  0  0  0  0  0  0999 V2000
   -8.5283   -0.3774  -22.1695 C   0  0  0  0  0  0  0  0  0  0  0  0
   -9.2992    0.9088  -22.2057 C   0  0  0  0  0  0  0  0  0  0  0  0
  -10.4734    0.7198  -23.1199 N   0  0  0  0  0  0  0  0  0  0  0  0
  -10.4281   -0.6832  -23.6485 C   0  0  0  0  0  0  0  0  0  0  0  0
  -11.4123   -1.2998  -24.5979 O   0  0  0  0  0  0  0  0  0  0  0  0
   -9.2260   -1.3614  -23.0612 C   0  0  0  0  0  0  0  0  0  0  0  0
  -10.0283   -2.2319  -23.9823 C   0  0  0  0  0  0  0  0  0  0  0  0
   -9.5992   -3.6457  -24.2411 N   0  0  0  0  0  0  0  0  0  0  0  0
   -8.3679   -4.1890  -23.5790 C   0  0  0  0  0  0  0  0  0  0  0  0
   -7.9388   -5.6028  -23.8378 O   0  0  0  0  0  0  0  0  0  0  0  0
   -7.5655   -3.3184  -22.6578 C   0  0  0  0  0  0  0  0  0  0  0  0
   -6.3341   -3.8617  -21.9957 C   0  0  0  0  0  0  0  0  0  0  0  0
   -5.5318   -2.9912  -21.0746 C   0  0  0  0  0  0  0  0  0  0  0  0
   -5.9609   -1.5773  -20.8157 C   0  0  0  0  0  0  0  0  0  0  0  0
   -5.1585   -0.7068  -19.8946 Cl  0  0  0  0  0  0  0  0  0  0  0  0
   -7.1922   -1.0341  -21.4779 C   0  0  0  0  0  0  0  0  0  0  0  0
   -7.9945   -1.9046  -22.3990 C   0  0  0  0  0  0  0  0  0  0  0  0
  -11.5107    1.7526  -23.4477 C   0  0  0  0  0  0  0  0  0  0  0  0
  -12.9192    1.5814  -22.9615 C   0  0  0  0  0  0  0  0  0  0  0  0
  -13.9565    2.6142  -23.2894 N   0  0  0  0  0  0  0  0  0  0  0  0
  -13.5852    3.8180  -24.1035 C   0  0  0  0  0  0  0  0  0  0  0  0
  -12.1765    3.9891  -24.5898 C   0  0  0  0  0  0  0  0  0  0  0  0
  -11.8052    5.1930  -25.4040 C   0  0  0  0  0  0  0  0  0  0  0  0
  -10.3965    5.3640  -25.8902 C   0  0  0  0  0  0  0  0  0  0  0  0
   -9.3593    4.3313  -25.5623 C   0  0  0  0  0  0  0  0  0  0  0  0
   -9.7306    3.1275  -24.7482 C   0  0  0  0  0  0  0  0  0  0  0  0
  -11.1392    2.9564  -24.2619 C   0  0  0  0  0  0  0  0  0  0  0  0
   -7.2790   -0.6346  -21.3801 C   0  0  0  0  0  0  0  0  0  0  0  0
   -6.1964    1.5332  -22.3174 C   0  0  0  0  0  0  0  0  0  0  0  0
   -6.0706    0.2301  -21.5854 O   0  0  0  0  0  0  0  0  0  0  0  0
  -10.4016   -4.5163  -25.1623 C   0  0  0  0  0  0  0  0  0  0  0  0
   -9.7074   -5.3687  -26.1827 C   0  0  0  0  0  0  0  0  0  0  0  0
   -9.6996   -6.8682  -26.2208 C   0  0  0  0  0  0  0  0  0  0  0  0
   -8.8865   -7.2975  -27.4059 N   0  0  0  0  0  0  0  0  0  0  0  0
   -8.3918   -6.0633  -28.1003 C   0  0  0  0  0  0  0  0  0  0  0  0
   -8.8992   -4.8713  -27.3444 N   0  0  0  0  0  0  0  0  0  0  0  0
   -8.7087   -8.2263  -27.6799 H   0  0  0  0  0  0  0  0  0  0  0  0
   -8.7312   -3.9280  -27.5708 H   0  0  0  0  0  0  0  0  0  0  0  0
 29 30  1  0  0  0
 30 28  1  0  0  0
  1 28  1  0  0  0
  1  2  1  0  0  0
  2  3  1  0  0  0
  3 18  1  0  0  0
 18 19  2  0  0  0
 19 20  1  0  0  0
 20 21  2  0  0  0
 21 22  1  0  0  0
 22 23  2  0  0  0
 23 24  1  0  0  0
 24 25  2  0  0  0
 25 26  1  0  0  0
 26 27  2  0  0  0
  3  4  1  0  0  0
  4  5  2  0  0  0
  4  6  1  0  0  0
  6  7  1  0  0  0
  7  8  1  0  0  0
  8 31  1  0  0  0
 31 32  1  0  0  0
 32 33  2  0  0  0
 33 34  1  0  0  0
 34 35  2  0  0  0
 35 36  1  0  0  0
  8  9  1  0  0  0
  9 10  2  0  0  0
  9 11  1  0  0  0
 11 12  2  0  0  0
 12 13  1  0  0  0
 13 14  2  0  0  0
 14 15  1  0  0  0
 14 16  1  0  0  0
 16 17  2  0  0  0
  6  1  1  0  0  0
 36 32  1  0  0  0
 17 11  1  0  0  0
 27 18  1  0  0  0
 17  6  1  0  0  0
 27 22  1  0  0  0
 34 37  1  0  0  0
 36 38  1  0  0  0
M  CHG 1  34   1
M  END
> <minimizedAffinity>
-8.76315

> <CNNscore>
0.5256065726

> <CNNaffinity>
6.3816175461

> <CNN_VS>
3.3542201519

> <CNNaffinity_variance>
0.4506490827

$$$$



 38 43  0  0  0  0  0  0  0  0999 V2000
   -8.2731   -2.5660  -22.7220 C   0  0  0  0  0  0  0  0  0  0  0  0
   -7.9596   -1.4393  -21.7827 C   0  0  0  0  0  0  0  0  0  0  0  0
   -6.6897   -1.7782  -21.0598 N   0  0  0  0  0  0  0  0  0  0  0  0
   -6.2184   -3.1144  -21.5524 C   0  0  0  0  0  0  0  0  0  0  0  0
   -4.9851   -3.8368  -21.0974 O   0  0  0  0  0  0  0  0  0  0  0  0
   -7.1970   -3.6013  -22.5797 C   0  0  0  0  0  0  0  0  0  0  0  0
   -6.0558   -4.5422  -22.3300 C   0  0  0  0  0  0  0  0  0  0  0  0
   -5.9729   -5.8370  -23.0827 N   0  0  0  0  0  0  0  0  0  0  0  0
   -7.0311   -6.1909  -24.0851 C   0  0  0  0  0  0  0  0  0  0  0  0
   -6.9481   -7.4857  -24.8379 O   0  0  0  0  0  0  0  0  0  0  0  0
   -8.1723   -5.2500  -24.3349 C   0  0  0  0  0  0  0  0  0  0  0  0
   -9.2306   -5.6039  -25.3373 C   0  0  0  0  0  0  0  0  0  0  0  0
  -10.3717   -4.6630  -25.5869 C   0  0  0  0  0  0  0  0  0  0  0  0
  -10.4547   -3.3682  -24.8342 C   0  0  0  0  0  0  0  0  0  0  0  0
  -11.5960   -2.4273  -25.0839 Cl  0  0  0  0  0  0  0  0  0  0  0  0
   -9.3965   -3.0143  -23.8318 C   0  0  0  0  0  0  0  0  0  0  0  0
   -8.2553   -3.9552  -23.5821 C   0  0  0  0  0  0  0  0  0  0  0  0
   -6.0104   -0.9300  -20.0259 C   0  0  0  0  0  0  0  0  0  0  0  0
   -6.5097   -0.9279  -18.6115 C   0  0  0  0  0  0  0  0  0  0  0  0
   -5.8303   -0.0796  -17.5777 N   0  0  0  0  0  0  0  0  0  0  0  0
   -4.6518    0.7666  -17.9582 C   0  0  0  0  0  0  0  0  0  0  0  0
   -4.1525    0.7645  -19.3727 C   0  0  0  0  0  0  0  0  0  0  0  0
   -2.9738    1.6108  -19.7533 C   0  0  0  0  0  0  0  0  0  0  0  0
   -2.4746    1.6086  -21.1678 C   0  0  0  0  0  0  0  0  0  0  0  0
   -3.1540    0.7603  -22.2016 C   0  0  0  0  0  0  0  0  0  0  0  0
   -4.3326   -0.0859  -21.8210 C   0  0  0  0  0  0  0  0  0  0  0  0
   -4.8318   -0.0838  -20.4066 C   0  0  0  0  0  0  0  0  0  0  0  0
   -9.4552   -2.6438  -23.6422 C   0  0  0  0  0  0  0  0  0  0  0  0
   -8.8694   -0.3919  -24.7979 C   0  0  0  0  0  0  0  0  0  0  0  0
   -9.8798   -1.4347  -24.4217 O   0  0  0  0  0  0  0  0  0  0  0  0
   -4.8316   -6.7779  -22.8330 C   0  0  0  0  0  0  0  0  0  0  0  0
   -3.6035   -6.7119  -23.6917 C   0  0  0  0  0  0  0  0  0  0  0  0
   -3.5736   -6.4551  -25.1692 C   0  0  0  0  0  0  0  0  0  0  0  0
   -2.1413   -6.4755  -25.6143 N   0  0  0  0  0  0  0  0  0  0  0  0
   -1.2859   -6.7450  -24.4118 C   0  0  0  0  0  0  0  0  0  0  0  0
   -2.1897   -6.8910  -23.2236 N   0  0  0  0  0  0  0  0  0  0  0  0
   -1.8191   -6.3365  -26.5342 H   0  0  0  0  0  0  0  0  0  0  0  0
   -1.9049   -7.0726  -22.2989 H   0  0  0  0  0  0  0  0  0  0  0  0
 29 30  1  0  0  0
 30 28  1  0  0  0
  1 28  1  0  0  0
  1  2  1  0  0  0
  2  3  1  0  0  0
  3 18  1  0  0  0
 18 19  2  0  0  0
 19 20  1  0  0  0
 20 21  2  0  0  0
 21 22  1  0  0  0
 22 23  2  0  0  0
 23 24  1  0  0  0
 24 25  2  0  0  0
 25 26  1  0  0  0
 26 27  2  0  0  0
  3  4  1  0  0  0
  4  5  2  0  0  0
  4  6  1  0  0  0
  6  7  1  0  0  0
  7  8  1  0  0  0
  8 31  1  0  0  0
 31 32  1  0  0  0
 32 33  2  0  0  0
 33 34  1  0  0  0
 34 35  2  0  0  0
 35 36  1  0  0  0
  8  9  1  0  0  0
  9 10  2  0  0  0
  9 11  1  0  0  0
 11 12  2  0  0  0
 12 13  1  0  0  0
 13 14  2  0  0  0
 14 15  1  0  0  0
 14 16  1  0  0  0
 16 17  2  0  0  0
  6  1  1  0  0  0
 36 32  1  0  0  0
 17 11  1  0  0  0
 27 18  1  0  0  0
 17  6  1  0  0  0
 27 22  1  0  0  0
 34 37  1  0  0  0
 36 38  1  0  0  0
M  CHG 1  34   1
M  END
> <minimizedAffinity>
-7.24898

> <CNNscore>
0.4111342430

> <CNNaffinity>
6.2790060043

> <CNN_VS>
2.5815143585

> <CNNaffinity_variance>
0.1707233489

$$$$



 38 43  0  0  0  0  0  0  0  0999 V2000
  -10.4020   -0.7733  -23.8686 C   0  0  0  0  0  0  0  0  0  0  0  0
  -11.5575    0.1817  -23.9203 C   0  0  0  0  0  0  0  0  0  0  0  0
  -11.0676    1.5268  -23.4725 N   0  0  0  0  0  0  0  0  0  0  0  0
   -9.6092    1.4031  -23.1440 C   0  0  0  0  0  0  0  0  0  0  0  0
   -8.7186    2.5072  -22.6563 O   0  0  0  0  0  0  0  0  0  0  0  0
   -9.1978   -0.0184  -23.3888 C   0  0  0  0  0  0  0  0  0  0  0  0
   -8.0864    0.8629  -22.9011 C   0  0  0  0  0  0  0  0  0  0  0  0
   -6.7122    0.2958  -22.7012 N   0  0  0  0  0  0  0  0  0  0  0  0
   -6.4494   -1.1526  -22.9890 C   0  0  0  0  0  0  0  0  0  0  0  0
   -5.0752   -1.7197  -22.7891 O   0  0  0  0  0  0  0  0  0  0  0  0
   -7.5609   -2.0341  -23.4768 C   0  0  0  0  0  0  0  0  0  0  0  0
   -7.2981   -3.4825  -23.7647 C   0  0  0  0  0  0  0  0  0  0  0  0
   -8.4095   -4.3638  -24.2525 C   0  0  0  0  0  0  0  0  0  0  0  0
   -9.7837   -3.7967  -24.4524 C   0  0  0  0  0  0  0  0  0  0  0  0
  -10.8951   -4.6782  -24.9402 Cl  0  0  0  0  0  0  0  0  0  0  0  0
  -10.0465   -2.3483  -24.1645 C   0  0  0  0  0  0  0  0  0  0  0  0
   -8.9351   -1.4670  -23.6767 C   0  0  0  0  0  0  0  0  0  0  0  0
  -11.8913    2.7763  -23.3710 C   0  0  0  0  0  0  0  0  0  0  0  0
  -12.9453    2.8956  -22.3105 C   0  0  0  0  0  0  0  0  0  0  0  0
  -13.7690    4.1451  -22.2089 N   0  0  0  0  0  0  0  0  0  0  0  0
  -13.5387    5.2751  -23.1680 C   0  0  0  0  0  0  0  0  0  0  0  0
  -12.4847    5.1558  -24.2286 C   0  0  0  0  0  0  0  0  0  0  0  0
  -12.2544    6.2860  -25.1877 C   0  0  0  0  0  0  0  0  0  0  0  0
  -11.2004    6.1665  -26.2482 C   0  0  0  0  0  0  0  0  0  0  0  0
  -10.3767    4.9171  -26.3497 C   0  0  0  0  0  0  0  0  0  0  0  0
  -10.6070    3.7870  -25.3906 C   0  0  0  0  0  0  0  0  0  0  0  0
  -11.6610    3.9063  -24.3301 C   0  0  0  0  0  0  0  0  0  0  0  0
  -10.4433   -2.2279  -24.2328 C   0  0  0  0  0  0  0  0  0  0  0  0
  -12.3570   -2.6047  -22.5165 C   0  0  0  0  0  0  0  0  0  0  0  0
  -11.4395   -3.1374  -23.5767 O   0  0  0  0  0  0  0  0  0  0  0  0
   -5.6008    1.1772  -22.2134 C   0  0  0  0  0  0  0  0  0  0  0  0
   -5.0814    1.0246  -20.8145 C   0  0  0  0  0  0  0  0  0  0  0  0
   -3.9065    1.7482  -20.2264 C   0  0  0  0  0  0  0  0  0  0  0  0
   -3.7447    1.2923  -18.8065 N   0  0  0  0  0  0  0  0  0  0  0  0
   -4.8198    0.2870  -18.5170 C   0  0  0  0  0  0  0  0  0  0  0  0
   -5.6459    0.1215  -19.7581 N   0  0  0  0  0  0  0  0  0  0  0  0
   -3.0542    1.5991  -18.1753 H   0  0  0  0  0  0  0  0  0  0  0  0
   -6.4222   -0.4750  -19.8611 H   0  0  0  0  0  0  0  0  0  0  0  0
 29 30  1  0  0  0
 30 28  1  0  0  0
  1 28  1  0  0  0
  1  2  1  0  0  0
  2  3  1  0  0  0
  3 18  1  0  0  0
 18 19  2  0  0  0
 19 20  1  0  0  0
 20 21  2  0  0  0
 21 22  1  0  0  0
 22 23  2  0  0  0
 23 24  1  0  0  0
 24 25  2  0  0  0
 25 26  1  0  0  0
 26 27  2  0  0  0
  3  4  1  0  0  0
  4  5  2  0  0  0
  4  6  1  0  0  0
  6  7  1  0  0  0
  7  8  1  0  0  0
  8 31  1  0  0  0
 31 32  1  0  0  0
 32 33  2  0  0  0
 33 34  1  0  0  0
 34 35  2  0  0  0
 35 36  1  0  0  0
  8  9  1  0  0  0
  9 10  2  0  0  0
  9 11  1  0  0  0
 11 12  2  0  0  0
 12 13  1  0  0  0
 13 14  2  0  0  0
 14 15  1  0  0  0
 14 16  1  0  0  0
 16 17  2  0  0  0
  6  1  1  0  0  0
 36 32  1  0  0  0
 17 11  1  0  0  0
 27 18  1  0  0  0
 17  6  1  0  0  0
 27 22  1  0  0  0
 34 37  1  0  0  0
 36 38  1  0  0  0
M  CHG 1  34   1
M  END
> <minimizedAffinity>
-8.02325

> <CNNscore>
0.3330154419

> <CNNaffinity>
6.3807215691

> <CNN_VS>
2.1248788834

> <CNNaffinity_variance>
0.0156395957

$$$$



 38 43  0  0  0  0  0  0  0  0999 V2000
   -7.1677   -3.5714  -23.1954 C   0  0  0  0  0  0  0  0  0  0  0  0
   -6.7109   -3.2301  -21.8081 C   0  0  0  0  0  0  0  0  0  0  0  0
   -6.4675   -1.7511  -21.7509 N   0  0  0  0  0  0  0  0  0  0  0  0
   -6.7739   -1.1784  -23.1030 C   0  0  0  0  0  0  0  0  0  0  0  0
   -6.6663    0.2659  -23.4937 O   0  0  0  0  0  0  0  0  0  0  0  0
   -7.2067   -2.3034  -23.9958 C   0  0  0  0  0  0  0  0  0  0  0  0
   -7.1965   -0.9617  -24.6664 C   0  0  0  0  0  0  0  0  0  0  0  0
   -7.5977   -0.8400  -26.1066 N   0  0  0  0  0  0  0  0  0  0  0  0
   -8.0092   -2.0600  -26.8762 C   0  0  0  0  0  0  0  0  0  0  0  0
   -8.4104   -1.9383  -28.3164 O   0  0  0  0  0  0  0  0  0  0  0  0
   -8.0194   -3.4018  -26.2056 C   0  0  0  0  0  0  0  0  0  0  0  0
   -8.4308   -4.6218  -26.9751 C   0  0  0  0  0  0  0  0  0  0  0  0
   -8.4410   -5.9634  -26.3045 C   0  0  0  0  0  0  0  0  0  0  0  0
   -8.0398   -6.0851  -24.8643 C   0  0  0  0  0  0  0  0  0  0  0  0
   -8.0500   -7.4269  -24.1937 Cl  0  0  0  0  0  0  0  0  0  0  0  0
   -7.6283   -4.8651  -24.0947 C   0  0  0  0  0  0  0  0  0  0  0  0
   -7.6181   -3.5235  -24.7654 C   0  0  0  0  0  0  0  0  0  0  0  0
   -5.9997   -0.9802  -20.5522 C   0  0  0  0  0  0  0  0  0  0  0  0
   -6.7477   -1.0825  -19.2561 C   0  0  0  0  0  0  0  0  0  0  0  0
   -6.2800   -0.3115  -18.0574 N   0  0  0  0  0  0  0  0  0  0  0  0
   -5.0643    0.5617  -18.1549 C   0  0  0  0  0  0  0  0  0  0  0  0
   -4.3163    0.6640  -19.4511 C   0  0  0  0  0  0  0  0  0  0  0  0
   -3.1005    1.5372  -19.5486 C   0  0  0  0  0  0  0  0  0  0  0  0
   -2.3526    1.6395  -20.8448 C   0  0  0  0  0  0  0  0  0  0  0  0
   -2.8203    0.8685  -22.0434 C   0  0  0  0  0  0  0  0  0  0  0  0
   -4.0360   -0.0047  -21.9459 C   0  0  0  0  0  0  0  0  0  0  0  0
   -4.7840   -0.1070  -20.6498 C   0  0  0  0  0  0  0  0  0  0  0  0
   -7.5233   -4.9404  -23.6948 C   0  0  0  0  0  0  0  0  0  0  0  0
   -5.9705   -6.2832  -22.1024 C   0  0  0  0  0  0  0  0  0  0  0  0
   -7.2732   -6.1419  -22.8322 O   0  0  0  0  0  0  0  0  0  0  0  0
   -7.5875    0.5017  -26.7772 C   0  0  0  0  0  0  0  0  0  0  0  0
   -8.4746    1.6001  -26.2707 C   0  0  0  0  0  0  0  0  0  0  0  0
   -8.9147    2.8063  -27.0462 C   0  0  0  0  0  0  0  0  0  0  0  0
   -9.7894    3.6368  -26.1546 N   0  0  0  0  0  0  0  0  0  0  0  0
   -9.8899    2.9440  -24.8279 C   0  0  0  0  0  0  0  0  0  0  0  0
   -9.0773    1.6852  -24.8997 N   0  0  0  0  0  0  0  0  0  0  0  0
  -10.2217    4.4874  -26.3974 H   0  0  0  0  0  0  0  0  0  0  0  0
   -8.9601    1.0299  -24.1744 H   0  0  0  0  0  0  0  0  0  0  0  0
 29 30  1  0  0  0
 30 28  1  0  0  0
  1 28  1  0  0  0
  1  2  1  0  0  0
  2  3  1  0  0  0
  3 18  1  0  0  0
 18 19  2  0  0  0
 19 20  1  0  0  0
 20 21  2  0  0  0
 21 22  1  0  0  0
 22 23  2  0  0  0
 23 24  1  0  0  0
 24 25  2  0  0  0
 25 26  1  0  0  0
 26 27  2  0  0  0
  3  4  1  0  0  0
  4  5  2  0  0  0
  4  6  1  0  0  0
  6  7  1  0  0  0
  7  8  1  0  0  0
  8 31  1  0  0  0
 31 32  1  0  0  0
 32 33  2  0  0  0
 33 34  1  0  0  0
 34 35  2  0  0  0
 35 36  1  0  0  0
  8  9  1  0  0  0
  9 10  2  0  0  0
  9 11  1  0  0  0
 11 12  2  0  0  0
 12 13  1  0  0  0
 13 14  2  0  0  0
 14 15  1  0  0  0
 14 16  1  0  0  0
 16 17  2  0  0  0
  6  1  1  0  0  0
 36 32  1  0  0  0
 17 11  1  0  0  0
 27 18  1  0  0  0
 17  6  1  0  0  0
 27 22  1  0  0  0
 34 37  1  0  0  0
 36 38  1  0  0  0
M  CHG 1  34   1
M  END
> <minimizedAffinity>
-7.80609

> <CNNscore>
0.2766898572

> <CNNaffinity>
6.2216043472

> <CNN_VS>
1.7214548588

> <CNNaffinity_variance>
0.1081976071

$$$$



 38 43  0  0  0  0  0  0  0  0999 V2000
   -9.2597    0.3408  -23.3674 C   0  0  0  0  0  0  0  0  0  0  0  0
   -7.7617    0.2729  -23.3301 C   0  0  0  0  0  0  0  0  0  0  0  0
   -7.2293    1.6582  -23.5477 N   0  0  0  0  0  0  0  0  0  0  0  0
   -8.3983    2.5823  -23.7194 C   0  0  0  0  0  0  0  0  0  0  0  0
   -8.3253    4.0611  -23.9604 O   0  0  0  0  0  0  0  0  0  0  0  0
   -9.6532    1.7681  -23.6080 C   0  0  0  0  0  0  0  0  0  0  0  0
   -9.8932    3.2286  -23.8513 C   0  0  0  0  0  0  0  0  0  0  0  0
  -11.2953    3.7502  -23.9612 N   0  0  0  0  0  0  0  0  0  0  0  0
  -12.4574    2.8112  -23.8277 C   0  0  0  0  0  0  0  0  0  0  0  0
  -13.8595    3.3328  -23.9375 O   0  0  0  0  0  0  0  0  0  0  0  0
  -12.2174    1.3506  -23.5843 C   0  0  0  0  0  0  0  0  0  0  0  0
  -13.3795    0.4117  -23.4507 C   0  0  0  0  0  0  0  0  0  0  0  0
  -13.1394   -1.0488  -23.2074 C   0  0  0  0  0  0  0  0  0  0  0  0
  -11.7373   -1.5704  -23.0975 C   0  0  0  0  0  0  0  0  0  0  0  0
  -11.4973   -3.0309  -22.8541 Cl  0  0  0  0  0  0  0  0  0  0  0  0
  -10.5752   -0.6314  -23.2311 C   0  0  0  0  0  0  0  0  0  0  0  0
  -10.8153    0.8291  -23.4744 C   0  0  0  0  0  0  0  0  0  0  0  0
   -5.7821    2.0506  -23.5868 C   0  0  0  0  0  0  0  0  0  0  0  0
   -5.1959    2.6310  -24.8395 C   0  0  0  0  0  0  0  0  0  0  0  0
   -3.7487    3.0234  -24.8786 N   0  0  0  0  0  0  0  0  0  0  0  0
   -2.8877    2.8354  -23.6648 C   0  0  0  0  0  0  0  0  0  0  0  0
   -3.4739    2.2550  -22.4120 C   0  0  0  0  0  0  0  0  0  0  0  0
   -2.6128    2.0669  -21.1982 C   0  0  0  0  0  0  0  0  0  0  0  0
   -3.1990    1.4865  -19.9454 C   0  0  0  0  0  0  0  0  0  0  0  0
   -4.6462    1.0942  -19.9064 C   0  0  0  0  0  0  0  0  0  0  0  0
   -5.5073    1.2822  -21.1202 C   0  0  0  0  0  0  0  0  0  0  0  0
   -4.9211    1.8626  -22.3729 C   0  0  0  0  0  0  0  0  0  0  0  0
  -10.1992   -0.8156  -23.1943 C   0  0  0  0  0  0  0  0  0  0  0  0
   -8.8430   -2.2869  -24.8514 C   0  0  0  0  0  0  0  0  0  0  0  0
  -10.1198   -1.9919  -24.1217 O   0  0  0  0  0  0  0  0  0  0  0  0
  -11.5353    5.2108  -24.2046 C   0  0  0  0  0  0  0  0  0  0  0  0
  -12.1972    5.6609  -25.4731 C   0  0  0  0  0  0  0  0  0  0  0  0
  -11.5096    5.9310  -26.7786 C   0  0  0  0  0  0  0  0  0  0  0  0
  -12.5503    6.3570  -27.7712 N   0  0  0  0  0  0  0  0  0  0  0  0
  -13.8812    6.3501  -27.0793 C   0  0  0  0  0  0  0  0  0  0  0  0
  -13.6630    5.9199  -25.6590 N   0  0  0  0  0  0  0  0  0  0  0  0
  -12.3884    6.5986  -28.7118 H   0  0  0  0  0  0  0  0  0  0  0  0
  -14.3594    5.8244  -24.9697 H   0  0  0  0  0  0  0  0  0  0  0  0
 29 30  1  0  0  0
 30 28  1  0  0  0
  1 28  1  0  0  0
  1  2  1  0  0  0
  2  3  1  0  0  0
  3 18  1  0  0  0
 18 19  2  0  0  0
 19 20  1  0  0  0
 20 21  2  0  0  0
 21 22  1  0  0  0
 22 23  2  0  0  0
 23 24  1  0  0  0
 24 25  2  0  0  0
 25 26  1  0  0  0
 26 27  2  0  0  0
  3  4  1  0  0  0
  4  5  2  0  0  0
  4  6  1  0  0  0
  6  7  1  0  0  0
  7  8  1  0  0  0
  8 31  1  0  0  0
 31 32  1  0  0  0
 32 33  2  0  0  0
 33 34  1  0  0  0
 34 35  2  0  0  0
 35 36  1  0  0  0
  8  9  1  0  0  0
  9 10  2  0  0  0
  9 11  1  0  0  0
 11 12  2  0  0  0
 12 13  1  0  0  0
 13 14  2  0  0  0
 14 15  1  0  0  0
 14 16  1  0  0  0
 16 17  2  0  0  0
  6  1  1  0  0  0
 36 32  1  0  0  0
 17 11  1  0  0  0
 27 18  1  0  0  0
 17  6  1  0  0  0
 27 22  1  0  0  0
 34 37  1  0  0  0
 36 38  1  0  0  0
M  CHG 1  34   1
M  END
> <minimizedAffinity>
-7.59684

> <CNNscore>
0.2758038640

> <CNNaffinity>
6.2388191223

> <CNN_VS>
1.7206903696

> <CNNaffinity_variance>
0.0648708716

$$$$



 38 43  0  0  0  0  0  0  0  0999 V2000
   -9.1795   -2.6454  -23.7021 C   0  0  0  0  0  0  0  0  0  0  0  0
  -10.2732   -1.7495  -24.2032 C   0  0  0  0  0  0  0  0  0  0  0  0
  -10.2568   -0.4942  -23.3823 N   0  0  0  0  0  0  0  0  0  0  0  0
   -9.1529   -0.6143  -22.3738 C   0  0  0  0  0  0  0  0  0  0  0  0
   -8.7802    0.4145  -21.3478 O   0  0  0  0  0  0  0  0  0  0  0  0
   -8.4871   -1.9438  -22.5715 C   0  0  0  0  0  0  0  0  0  0  0  0
   -7.8951   -1.1238  -21.4637 C   0  0  0  0  0  0  0  0  0  0  0  0
   -6.7398   -1.6580  -20.6701 N   0  0  0  0  0  0  0  0  0  0  0  0
   -6.1764   -3.0122  -20.9842 C   0  0  0  0  0  0  0  0  0  0  0  0
   -5.0210   -3.5463  -20.1906 O   0  0  0  0  0  0  0  0  0  0  0  0
   -6.7683   -3.8323  -22.0920 C   0  0  0  0  0  0  0  0  0  0  0  0
   -6.2048   -5.1864  -22.4062 C   0  0  0  0  0  0  0  0  0  0  0  0
   -6.7968   -6.0064  -23.5139 C   0  0  0  0  0  0  0  0  0  0  0  0
   -7.9521   -5.4723  -24.3076 C   0  0  0  0  0  0  0  0  0  0  0  0
   -8.5440   -6.2923  -25.4154 Cl  0  0  0  0  0  0  0  0  0  0  0  0
   -8.5155   -4.1181  -23.9934 C   0  0  0  0  0  0  0  0  0  0  0  0
   -7.9236   -3.2981  -22.8857 C   0  0  0  0  0  0  0  0  0  0  0  0
  -11.1818    0.6758  -23.5417 C   0  0  0  0  0  0  0  0  0  0  0  0
  -12.6399    0.5280  -23.2227 C   0  0  0  0  0  0  0  0  0  0  0  0
  -13.5649    1.6980  -23.3822 N   0  0  0  0  0  0  0  0  0  0  0  0
  -13.0317    3.0158  -23.8607 C   0  0  0  0  0  0  0  0  0  0  0  0
  -11.5735    3.1636  -24.1798 C   0  0  0  0  0  0  0  0  0  0  0  0
  -11.0402    4.4815  -24.6583 C   0  0  0  0  0  0  0  0  0  0  0  0
   -9.5820    4.6293  -24.9773 C   0  0  0  0  0  0  0  0  0  0  0  0
   -8.6571    3.4593  -24.8178 C   0  0  0  0  0  0  0  0  0  0  0  0
   -9.1903    2.1414  -24.3393 C   0  0  0  0  0  0  0  0  0  0  0  0
  -10.6484    1.9936  -24.0203 C   0  0  0  0  0  0  0  0  0  0  0  0
   -8.8381   -4.0043  -24.2377 C   0  0  0  0  0  0  0  0  0  0  0  0
   -9.3269   -5.9688  -25.8661 C   0  0  0  0  0  0  0  0  0  0  0  0
   -9.6797   -4.6184  -25.3168 O   0  0  0  0  0  0  0  0  0  0  0  0
   -6.1479   -0.8379  -19.5623 C   0  0  0  0  0  0  0  0  0  0  0  0
   -4.9660    0.0454  -19.8321 C   0  0  0  0  0  0  0  0  0  0  0  0
   -4.2725    0.2115  -21.1518 C   0  0  0  0  0  0  0  0  0  0  0  0
   -3.1480    1.1864  -20.9650 N   0  0  0  0  0  0  0  0  0  0  0  0
   -3.1464    1.6229  -19.5298 C   0  0  0  0  0  0  0  0  0  0  0  0
   -4.2700    0.9177  -18.8297 N   0  0  0  0  0  0  0  0  0  0  0  0
   -2.5210    1.4871  -21.6619 H   0  0  0  0  0  0  0  0  0  0  0  0
   -4.5088    1.0109  -17.8792 H   0  0  0  0  0  0  0  0  0  0  0  0
 29 30  1  0  0  0
 30 28  1  0  0  0
  1 28  1  0  0  0
  1  2  1  0  0  0
  2  3  1  0  0  0
  3 18  1  0  0  0
 18 19  2  0  0  0
 19 20  1  0  0  0
 20 21  2  0  0  0
 21 22  1  0  0  0
 22 23  2  0  0  0
 23 24  1  0  0  0
 24 25  2  0  0  0
 25 26  1  0  0  0
 26 27  2  0  0  0
  3  4  1  0  0  0
  4  5  2  0  0  0
  4  6  1  0  0  0
  6  7  1  0  0  0
  7  8  1  0  0  0
  8 31  1  0  0  0
 31 32  1  0  0  0
 32 33  2  0  0  0
 33 34  1  0  0  0
 34 35  2  0  0  0
 35 36  1  0  0  0
  8  9  1  0  0  0
  9 10  2  0  0  0
  9 11  1  0  0  0
 11 12  2  0  0  0
 12 13  1  0  0  0
 13 14  2  0  0  0
 14 15  1  0  0  0
 14 16  1  0  0  0
 16 17  2  0  0  0
  6  1  1  0  0  0
 36 32  1  0  0  0
 17 11  1  0  0  0
 27 18  1  0  0  0
 17  6  1  0  0  0
 27 22  1  0  0  0
 34 37  1  0  0  0
 36 38  1  0  0  0
M  CHG 1  34   1
M  END
> <minimizedAffinity>
-9.02936

> <CNNscore>
0.2677634358

> <CNNaffinity>
6.2052550316

> <CNN_VS>
1.6615403891

> <CNNaffinity_variance>
0.1232798696

$$$$



 38 43  0  0  0  0  0  0  0  0999 V2000
   -6.3735   -4.1578  -22.7162 C   0  0  0  0  0  0  0  0  0  0  0  0
   -5.5105   -3.4666  -21.7025 C   0  0  0  0  0  0  0  0  0  0  0  0
   -6.2749   -2.2926  -21.1664 N   0  0  0  0  0  0  0  0  0  0  0  0
   -7.6103   -2.2583  -21.8487 C   0  0  0  0  0  0  0  0  0  0  0  0
   -8.6944   -1.2485  -21.6143 O   0  0  0  0  0  0  0  0  0  0  0  0
   -7.6713   -3.4110  -22.8065 C   0  0  0  0  0  0  0  0  0  0  0  0
   -8.9111   -2.5670  -22.7880 C   0  0  0  0  0  0  0  0  0  0  0  0
  -10.0669   -2.9124  -23.6796 N   0  0  0  0  0  0  0  0  0  0  0  0
   -9.9828   -4.1017  -24.5897 C   0  0  0  0  0  0  0  0  0  0  0  0
  -11.1386   -4.4471  -25.4812 O   0  0  0  0  0  0  0  0  0  0  0  0
   -8.7429   -4.9458  -24.6082 C   0  0  0  0  0  0  0  0  0  0  0  0
   -8.6589   -6.1352  -25.5183 C   0  0  0  0  0  0  0  0  0  0  0  0
   -7.4190   -6.9792  -25.5368 C   0  0  0  0  0  0  0  0  0  0  0  0
   -6.2632   -6.6338  -24.6452 C   0  0  0  0  0  0  0  0  0  0  0  0
   -5.0233   -7.4779  -24.6638 Cl  0  0  0  0  0  0  0  0  0  0  0  0
   -6.3473   -5.4445  -23.7351 C   0  0  0  0  0  0  0  0  0  0  0  0
   -7.5872   -4.6005  -23.7166 C   0  0  0  0  0  0  0  0  0  0  0  0
   -5.7892   -1.3231  -20.1299 C   0  0  0  0  0  0  0  0  0  0  0  0
   -6.3214   -1.3934  -18.7294 C   0  0  0  0  0  0  0  0  0  0  0  0
   -5.8357   -0.4240  -17.6929 N   0  0  0  0  0  0  0  0  0  0  0  0
   -4.8177    0.6158  -18.0572 C   0  0  0  0  0  0  0  0  0  0  0  0
   -4.2855    0.6861  -19.4578 C   0  0  0  0  0  0  0  0  0  0  0  0
   -3.2675    1.7259  -19.8220 C   0  0  0  0  0  0  0  0  0  0  0  0
   -2.7353    1.7961  -21.2227 C   0  0  0  0  0  0  0  0  0  0  0  0
   -3.2210    0.8266  -22.2590 C   0  0  0  0  0  0  0  0  0  0  0  0
   -4.2390   -0.2131  -21.8948 C   0  0  0  0  0  0  0  0  0  0  0  0
   -4.7712   -0.2834  -20.4943 C   0  0  0  0  0  0  0  0  0  0  0  0
   -6.0037   -5.3811  -23.5016 C   0  0  0  0  0  0  0  0  0  0  0  0
   -5.7351   -6.7773  -21.3271 C   0  0  0  0  0  0  0  0  0  0  0  0
   -5.4832   -6.5974  -22.7947 O   0  0  0  0  0  0  0  0  0  0  0  0
  -11.3068   -2.0683  -23.6610 C   0  0  0  0  0  0  0  0  0  0  0  0
  -11.1965   -0.5727  -23.6914 C   0  0  0  0  0  0  0  0  0  0  0  0
  -12.2861    0.3989  -23.3470 C   0  0  0  0  0  0  0  0  0  0  0  0
  -11.7402    1.7860  -23.5143 N   0  0  0  0  0  0  0  0  0  0  0  0
  -10.3132    1.6717  -23.9621 C   0  0  0  0  0  0  0  0  0  0  0  0
   -9.9771    0.2139  -24.0716 N   0  0  0  0  0  0  0  0  0  0  0  0
  -12.2322    2.6243  -23.3576 H   0  0  0  0  0  0  0  0  0  0  0  0
   -9.1088   -0.1608  -24.3449 H   0  0  0  0  0  0  0  0  0  0  0  0
 29 30  1  0  0  0
 30 28  1  0  0  0
  1 28  1  0  0  0
  1  2  1  0  0  0
  2  3  1  0  0  0
  3 18  1  0  0  0
 18 19  2  0  0  0
 19 20  1  0  0  0
 20 21  2  0  0  0
 21 22  1  0  0  0
 22 23  2  0  0  0
 23 24  1  0  0  0
 24 25  2  0  0  0
 25 26  1  0  0  0
 26 27  2  0  0  0
  3  4  1  0  0  0
  4  5  2  0  0  0
  4  6  1  0  0  0
  6  7  1  0  0  0
  7  8  1  0  0  0
  8 31  1  0  0  0
 31 32  1  0  0  0
 32 33  2  0  0  0
 33 34  1  0  0  0
 34 35  2  0  0  0
 35 36  1  0  0  0
  8  9  1  0  0  0
  9 10  2  0  0  0
  9 11  1  0  0  0
 11 12  2  0  0  0
 12 13  1  0  0  0
 13 14  2  0  0  0
 14 15  1  0  0  0
 14 16  1  0  0  0
 16 17  2  0  0  0
  6  1  1  0  0  0
 36 32  1  0  0  0
 17 11  1  0  0  0
 27 18  1  0  0  0
 17  6  1  0  0  0
 27 22  1  0  0  0
 34 37  1  0  0  0
 36 38  1  0  0  0
M  CHG 1  34   1
M  END
> <minimizedAffinity>
-8.61955

> <CNNscore>
0.2160587609

> <CNNaffinity>
6.1201372147

> <CNN_VS>
1.3223092556

> <CNNaffinity_variance>
0.2150805295

$$$$



 38 43  0  0  0  0  0  0  0  0999 V2000
   -9.2503   -0.1891  -23.4627 C   0  0  0  0  0  0  0  0  0  0  0  0
   -7.8068   -0.5968  -23.4485 C   0  0  0  0  0  0  0  0  0  0  0  0
   -6.9766    0.6287  -23.6911 N   0  0  0  0  0  0  0  0  0  0  0  0
   -7.9070    1.7938  -23.8552 C   0  0  0  0  0  0  0  0  0  0  0  0
   -7.5031    3.2149  -24.1149 O   0  0  0  0  0  0  0  0  0  0  0  0
   -9.3122    1.2884  -23.7141 C   0  0  0  0  0  0  0  0  0  0  0  0
   -9.2173    2.7631  -23.9711 C   0  0  0  0  0  0  0  0  0  0  0  0
  -10.4653    3.5899  -24.0649 N   0  0  0  0  0  0  0  0  0  0  0  0
  -11.8083    2.9420  -23.9017 C   0  0  0  0  0  0  0  0  0  0  0  0
  -13.0563    3.7689  -23.9955 O   0  0  0  0  0  0  0  0  0  0  0  0
  -11.9033    1.4672  -23.6447 C   0  0  0  0  0  0  0  0  0  0  0  0
  -13.2462    0.8193  -23.4815 C   0  0  0  0  0  0  0  0  0  0  0  0
  -13.3411   -0.6554  -23.2245 C   0  0  0  0  0  0  0  0  0  0  0  0
  -12.0931   -1.4822  -23.1307 C   0  0  0  0  0  0  0  0  0  0  0  0
  -12.1881   -2.9571  -22.8737 Cl  0  0  0  0  0  0  0  0  0  0  0  0
  -10.7502   -0.8343  -23.2939 C   0  0  0  0  0  0  0  0  0  0  0  0
  -10.6552    0.6404  -23.5509 C   0  0  0  0  0  0  0  0  0  0  0  0
   -5.4790    0.6802  -23.7578 C   0  0  0  0  0  0  0  0  0  0  0  0
   -4.7808    0.5142  -25.0749 C   0  0  0  0  0  0  0  0  0  0  0  0
   -3.2832    0.5657  -25.1416 N   0  0  0  0  0  0  0  0  0  0  0  0
   -2.4838    0.7831  -23.8911 C   0  0  0  0  0  0  0  0  0  0  0  0
   -3.1820    0.9491  -22.5740 C   0  0  0  0  0  0  0  0  0  0  0  0
   -2.3826    1.1665  -21.3234 C   0  0  0  0  0  0  0  0  0  0  0  0
   -3.0809    1.3325  -20.0063 C   0  0  0  0  0  0  0  0  0  0  0  0
   -4.5785    1.2810  -19.9397 C   0  0  0  0  0  0  0  0  0  0  0  0
   -5.3779    1.0636  -21.1901 C   0  0  0  0  0  0  0  0  0  0  0  0
   -4.6797    0.8976  -22.5072 C   0  0  0  0  0  0  0  0  0  0  0  0
  -10.4255   -1.0992  -23.2610 C   0  0  0  0  0  0  0  0  0  0  0  0
   -9.6219   -3.0013  -24.8376 C   0  0  0  0  0  0  0  0  0  0  0  0
  -10.7308   -2.1653  -24.2711 O   0  0  0  0  0  0  0  0  0  0  0  0
  -10.3703    5.0648  -24.3219 C   0  0  0  0  0  0  0  0  0  0  0  0
   -9.6439    5.5697  -25.5332 C   0  0  0  0  0  0  0  0  0  0  0  0
  -10.2607    5.8840  -26.8639 C   0  0  0  0  0  0  0  0  0  0  0  0
   -9.1712    6.3576  -27.7796 N   0  0  0  0  0  0  0  0  0  0  0  0
   -7.8809    6.3361  -27.0148 C   0  0  0  0  0  0  0  0  0  0  0  0
   -8.1731    5.8491  -25.6264 N   0  0  0  0  0  0  0  0  0  0  0  0
   -9.2832    6.6340  -28.7178 H   0  0  0  0  0  0  0  0  0  0  0  0
   -7.5151    5.7333  -24.9034 H   0  0  0  0  0  0  0  0  0  0  0  0
 29 30  1  0  0  0
 30 28  1  0  0  0
  1 28  1  0  0  0
  1  2  1  0  0  0
  2  3  1  0  0  0
  3 18  1  0  0  0
 18 19  2  0  0  0
 19 20  1  0  0  0
 20 21  2  0  0  0
 21 22  1  0  0  0
 22 23  2  0  0  0
 23 24  1  0  0  0
 24 25  2  0  0  0
 25 26  1  0  0  0
 26 27  2  0  0  0
  3  4  1  0  0  0
  4  5  2  0  0  0
  4  6  1  0  0  0
  6  7  1  0  0  0
  7  8  1  0  0  0
  8 31  1  0  0  0
 31 32  1  0  0  0
 32 33  2  0  0  0
 33 34  1  0  0  0
 34 35  2  0  0  0
 35 36  1  0  0  0
  8  9  1  0  0  0
  9 10  2  0  0  0
  9 11  1  0  0  0
 11 12  2  0  0  0
 12 13  1  0  0  0
 13 14  2  0  0  0
 14 15  1  0  0  0
 14 16  1  0  0  0
 16 17  2  0  0  0
  6  1  1  0  0  0
 36 32  1  0  0  0
 17 11  1  0  0  0
 27 18  1  0  0  0
 17  6  1  0  0  0
 27 22  1  0  0  0
 34 37  1  0  0  0
 36 38  1  0  0  0
M  CHG 1  34   1
M  END
> <minimizedAffinity>
-6.98800

> <CNNscore>
0.2091494650

> <CNNaffinity>
6.0844163895

> <CNN_VS>
1.2725524902

> <CNNaffinity_variance>
0.0787254199

$$$$



 38 43  0  0  0  0  0  0  0  0999 V2000
   -9.4594   -1.2641  -23.3814 C   0  0  0  0  0  0  0  0  0  0  0  0
   -9.0982   -2.7189  -23.3257 C   0  0  0  0  0  0  0  0  0  0  0  0
   -7.6136   -2.8210  -23.1373 N   0  0  0  0  0  0  0  0  0  0  0  0
   -7.0573   -1.4293  -23.0766 C   0  0  0  0  0  0  0  0  0  0  0  0
   -5.6136   -1.0640  -22.8966 O   0  0  0  0  0  0  0  0  0  0  0  0
   -8.1980   -0.4670  -23.2274 C   0  0  0  0  0  0  0  0  0  0  0  0
   -6.8611    0.1928  -23.0629 C   0  0  0  0  0  0  0  0  0  0  0  0
   -6.7585    1.6892  -23.0603 N   0  0  0  0  0  0  0  0  0  0  0  0
   -7.9928    2.5259  -23.2221 C   0  0  0  0  0  0  0  0  0  0  0  0
   -7.8902    4.0224  -23.2194 O   0  0  0  0  0  0  0  0  0  0  0  0
   -9.3299    1.8661  -23.3866 C   0  0  0  0  0  0  0  0  0  0  0  0
  -10.5643    2.7028  -23.5484 C   0  0  0  0  0  0  0  0  0  0  0  0
  -11.9013    2.0430  -23.7129 C   0  0  0  0  0  0  0  0  0  0  0  0
  -12.0039    0.5465  -23.7156 C   0  0  0  0  0  0  0  0  0  0  0  0
  -13.3409   -0.1133  -23.8801 Cl  0  0  0  0  0  0  0  0  0  0  0  0
  -10.7695   -0.2902  -23.5538 C   0  0  0  0  0  0  0  0  0  0  0  0
   -9.4325    0.3696  -23.3893 C   0  0  0  0  0  0  0  0  0  0  0  0
   -6.8240   -4.0917  -23.0288 C   0  0  0  0  0  0  0  0  0  0  0  0
   -6.1859   -4.4690  -21.7248 C   0  0  0  0  0  0  0  0  0  0  0  0
   -5.3962   -5.7397  -21.6163 N   0  0  0  0  0  0  0  0  0  0  0  0
   -5.2447   -6.6330  -22.8117 C   0  0  0  0  0  0  0  0  0  0  0  0
   -5.8829   -6.2556  -24.1157 C   0  0  0  0  0  0  0  0  0  0  0  0
   -5.7313   -7.1490  -25.3111 C   0  0  0  0  0  0  0  0  0  0  0  0
   -6.3695   -6.7716  -26.6151 C   0  0  0  0  0  0  0  0  0  0  0  0
   -7.1591   -5.5009  -26.7236 C   0  0  0  0  0  0  0  0  0  0  0  0
   -7.3106   -4.6076  -25.5282 C   0  0  0  0  0  0  0  0  0  0  0  0
   -6.6725   -4.9850  -24.2242 C   0  0  0  0  0  0  0  0  0  0  0  0
  -10.8397   -0.7045  -23.5598 C   0  0  0  0  0  0  0  0  0  0  0  0
  -12.1873   -2.6417  -22.4729 C   0  0  0  0  0  0  0  0  0  0  0  0
  -12.0266   -1.6217  -23.5609 O   0  0  0  0  0  0  0  0  0  0  0  0
   -5.4214    2.3490  -22.8958 C   0  0  0  0  0  0  0  0  0  0  0  0
   -4.6343    2.1449  -21.6353 C   0  0  0  0  0  0  0  0  0  0  0  0
   -3.4771    2.9800  -21.1735 C   0  0  0  0  0  0  0  0  0  0  0  0
   -2.9938    2.4211  -19.8681 N   0  0  0  0  0  0  0  0  0  0  0  0
   -3.8524    1.2404  -19.5232 C   0  0  0  0  0  0  0  0  0  0  0  0
   -4.8663    1.0698  -20.6154 N   0  0  0  0  0  0  0  0  0  0  0  0
   -2.2446    2.7682  -19.3319 H   0  0  0  0  0  0  0  0  0  0  0  0
   -5.5618    0.3742  -20.6557 H   0  0  0  0  0  0  0  0  0  0  0  0
 29 30  1  0  0  0
 30 28  1  0  0  0
  1 28  1  0  0  0
  1  2  1  0  0  0
  2  3  1  0  0  0
  3 18  1  0  0  0
 18 19  2  0  0  0
 19 20  1  0  0  0
 20 21  2  0  0  0
 21 22  1  0  0  0
 22 23  2  0  0  0
 23 24  1  0  0  0
 24 25  2  0  0  0
 25 26  1  0  0  0
 26 27  2  0  0  0
  3  4  1  0  0  0
  4  5  2  0  0  0
  4  6  1  0  0  0
  6  7  1  0  0  0
  7  8  1  0  0  0
  8 31  1  0  0  0
 31 32  1  0  0  0
 32 33  2  0  0  0
 33 34  1  0  0  0
 34 35  2  0  0  0
 35 36  1  0  0  0
  8  9  1  0  0  0
  9 10  2  0  0  0
  9 11  1  0  0  0
 11 12  2  0  0  0
 12 13  1  0  0  0
 13 14  2  0  0  0
 14 15  1  0  0  0
 14 16  1  0  0  0
 16 17  2  0  0  0
  6  1  1  0  0  0
 36 32  1  0  0  0
 17 11  1  0  0  0
 27 18  1  0  0  0
 17  6  1  0  0  0
 27 22  1  0  0  0
 34 37  1  0  0  0
 36 38  1  0  0  0
M  CHG 1  34   1
M  END
> <minimizedAffinity>
-7.76846

> <CNNscore>
0.1717665493

> <CNNaffinity>
6.1897072792

> <CNN_VS>
1.0631846189

> <CNNaffinity_variance>
0.1580014378

$$$$
