


 38 43  0  0  0  0  0  0  0  0999 V2000
    7.5800   -1.9713   22.5509 C   0  0  0  0  0  0  0  0  0  0  0  0
    6.4863   -1.7219   21.5550 C   0  0  0  0  0  0  0  0  0  0  0  0
    6.7733   -0.4199   20.8678 N   0  0  0  0  0  0  0  0  0  0  0  0
    8.0443    0.1354   21.4390 C   0  0  0  0  0  0  0  0  0  0  0  0
    8.7014    1.4234   21.0399 O   0  0  0  0  0  0  0  0  0  0  0  0
    8.5429   -0.8234   22.4792 C   0  0  0  0  0  0  0  0  0  0  0  0
    9.4130    0.3846   22.2960 C   0  0  0  0  0  0  0  0  0  0  0  0
   10.6561    0.5454   23.1198 N   0  0  0  0  0  0  0  0  0  0  0  0
   11.0292   -0.5018   24.1269 C   0  0  0  0  0  0  0  0  0  0  0  0
   12.2723   -0.3410   24.9507 O   0  0  0  0  0  0  0  0  0  0  0  0
   10.1590   -1.7099   24.3102 C   0  0  0  0  0  0  0  0  0  0  0  0
   10.5320   -2.7570   25.3172 C   0  0  0  0  0  0  0  0  0  0  0  0
    9.6619   -3.9650   25.5005 C   0  0  0  0  0  0  0  0  0  0  0  0
    8.4188   -4.1258   24.6766 C   0  0  0  0  0  0  0  0  0  0  0  0
    7.5486   -5.3339   24.8599 Cl  0  0  0  0  0  0  0  0  0  0  0  0
    8.0458   -3.0786   23.6696 C   0  0  0  0  0  0  0  0  0  0  0  0
    8.9159   -1.8707   23.4863 C   0  0  0  0  0  0  0  0  0  0  0  0
    5.9363    0.2154   19.7974 C   0  0  0  0  0  0  0  0  0  0  0  0
    6.3421    0.0960   18.3583 C   0  0  0  0  0  0  0  0  0  0  0  0
    5.5051    0.7312   17.2879 N   0  0  0  0  0  0  0  0  0  0  0  0
    4.2623    1.4859   17.6565 C   0  0  0  0  0  0  0  0  0  0  0  0
    3.8565    1.6052   19.0957 C   0  0  0  0  0  0  0  0  0  0  0  0
    2.6136    2.3599   19.4644 C   0  0  0  0  0  0  0  0  0  0  0  0
    2.2079    2.4792   20.9035 C   0  0  0  0  0  0  0  0  0  0  0  0
    3.0449    1.8440   21.9739 C   0  0  0  0  0  0  0  0  0  0  0  0
    4.2877    1.0894   21.6052 C   0  0  0  0  0  0  0  0  0  0  0  0
    4.6935    0.9700   20.1661 C   0  0  0  0  0  0  0  0  0  0  0  0
    7.6911   -3.1599   23.4591 C   0  0  0  0  0  0  0  0  0  0  0  0
    5.7422   -4.5463   22.4444 C   0  0  0  0  0  0  0  0  0  0  0  0
    7.1174   -4.4808   23.0395 O   0  0  0  0  0  0  0  0  0  0  0  0
   11.5263    1.7534   22.9365 C   0  0  0  0  0  0  0  0  0  0  0  0
   10.9313    3.1273   23.0290 C   0  0  0  0  0  0  0  0  0  0  0  0
    9.4721    3.4492   23.1587 C   0  0  0  0  0  0  0  0  0  0  0  0
    9.3300    4.9413   23.2179 N   0  0  0  0  0  0  0  0  0  0  0  0
   10.7016    5.5415   23.1248 C   0  0  0  0  0  0  0  0  0  0  0  0
   11.6912    4.4204   23.0080 N   0  0  0  0  0  0  0  0  0  0  0  0
    8.4850    5.4392   23.3029 H   0  0  0  0  0  0  0  0  0  0  0  0
   12.6680    4.5164   22.9311 H   0  0  0  0  0  0  0  0  0  0  0  0
 29 30  1  0  0  0
 30 28  1  0  0  0
  1 28  1  0  0  0
  1  2  1  0  0  0
  2  3  1  0  0  0
  3 18  1  0  0  0
 18 19  2  0  0  0
 19 20  1  0  0  0
 20 21  2  0  0  0
 21 22  1  0  0  0
 22 23  2  0  0  0
 23 24  1  0  0  0
 24 25  2  0  0  0
 25 26  1  0  0  0
 26 27  2  0  0  0
  3  4  1  0  0  0
  4  5  2  0  0  0
  4  6  1  0  0  0
  6  7  1  0  0  0
  7  8  1  0  0  0
  8 31  1  0  0  0
 31 32  1  0  0  0
 32 33  2  0  0  0
 33 34  1  0  0  0
 34 35  2  0  0  0
 35 36  1  0  0  0
  8  9  1  0  0  0
  9 10  2  0  0  0
  9 11  1  0  0  0
 11 12  2  0  0  0
 12 13  1  0  0  0
 13 14  2  0  0  0
 14 15  1  0  0  0
 14 16  1  0  0  0
 16 17  2  0  0  0
  6  1  1  0  0  0
 36 32  1  0  0  0
 17 11  1  0  0  0
 27 18  1  0  0  0
 17  6  1  0  0  0
 27 22  1  0  0  0
 34 37  1  0  0  0
 36 38  1  0  0  0
M  CHG 1  34   1
M  END
> <minimizedAffinity>
-9.19512

> <CNNscore>
0.5876588821

> <CNNaffinity>
6.8556656837

> <CNN_VS>
4.0287928581

> <CNNaffinity_variance>
0.1093263030

$$$$



 38 43  0  0  0  0  0  0  0  0999 V2000
    7.9296   -1.4719   22.9231 C   0  0  0  0  0  0  0  0  0  0  0  0
    7.5328   -0.3507   22.0091 C   0  0  0  0  0  0  0  0  0  0  0  0
    6.3971   -0.8296   21.1542 N   0  0  0  0  0  0  0  0  0  0  0  0
    6.0921   -2.2467   21.5398 C   0  0  0  0  0  0  0  0  0  0  0  0
    5.0269   -3.1145   20.9378 O   0  0  0  0  0  0  0  0  0  0  0  0
    7.0392   -2.6437   22.6331 C   0  0  0  0  0  0  0  0  0  0  0  0
    6.0799   -3.7256   22.2343 C   0  0  0  0  0  0  0  0  0  0  0  0
    6.1282   -5.0601   22.9176 N   0  0  0  0  0  0  0  0  0  0  0  0
    7.1358   -5.3126   23.9997 C   0  0  0  0  0  0  0  0  0  0  0  0
    7.1841   -6.6471   24.6829 O   0  0  0  0  0  0  0  0  0  0  0  0
    8.0952   -4.2307   24.3985 C   0  0  0  0  0  0  0  0  0  0  0  0
    9.1029   -4.4832   25.4805 C   0  0  0  0  0  0  0  0  0  0  0  0
   10.0622   -3.4013   25.8793 C   0  0  0  0  0  0  0  0  0  0  0  0
   10.0139   -2.0668   25.1960 C   0  0  0  0  0  0  0  0  0  0  0  0
   10.9733   -0.9849   25.5948 Cl  0  0  0  0  0  0  0  0  0  0  0  0
    9.0063   -1.8143   24.1140 C   0  0  0  0  0  0  0  0  0  0  0  0
    8.0469   -2.8962   23.7152 C   0  0  0  0  0  0  0  0  0  0  0  0
    5.6905   -0.0315   20.0988 C   0  0  0  0  0  0  0  0  0  0  0  0
    6.1514   -0.0991   18.6731 C   0  0  0  0  0  0  0  0  0  0  0  0
    5.4448    0.6990   17.6178 N   0  0  0  0  0  0  0  0  0  0  0  0
    4.2772    1.5648   17.9883 C   0  0  0  0  0  0  0  0  0  0  0  0
    3.8163    1.6324   19.4141 C   0  0  0  0  0  0  0  0  0  0  0  0
    2.6487    2.4982   19.7846 C   0  0  0  0  0  0  0  0  0  0  0  0
    2.1878    2.5657   21.2105 C   0  0  0  0  0  0  0  0  0  0  0  0
    2.8944    1.7676   22.2657 C   0  0  0  0  0  0  0  0  0  0  0  0
    4.0620    0.9019   21.8952 C   0  0  0  0  0  0  0  0  0  0  0  0
    4.5229    0.8343   20.4695 C   0  0  0  0  0  0  0  0  0  0  0  0
    9.0246   -1.4288   23.9474 C   0  0  0  0  0  0  0  0  0  0  0  0
   10.9847   -1.1355   22.2675 C   0  0  0  0  0  0  0  0  0  0  0  0
   10.3571   -0.8361   23.5965 O   0  0  0  0  0  0  0  0  0  0  0  0
    5.1688   -6.1421   22.5188 C   0  0  0  0  0  0  0  0  0  0  0  0
    3.9083   -6.3536   23.3039 C   0  0  0  0  0  0  0  0  0  0  0  0
    3.6094   -5.7883   24.6607 C   0  0  0  0  0  0  0  0  0  0  0  0
    2.2418   -6.2528   25.0655 N   0  0  0  0  0  0  0  0  0  0  0  0
    1.6954   -7.1052   23.9587 C   0  0  0  0  0  0  0  0  0  0  0  0
    2.7254   -7.1675   22.8700 N   0  0  0  0  0  0  0  0  0  0  0  0
    1.7833   -6.0362   25.9093 H   0  0  0  0  0  0  0  0  0  0  0  0
    2.6400   -7.6567   22.0199 H   0  0  0  0  0  0  0  0  0  0  0  0
 29 30  1  0  0  0
 30 28  1  0  0  0
  1 28  1  0  0  0
  1  2  1  0  0  0
  2  3  1  0  0  0
  3 18  1  0  0  0
 18 19  2  0  0  0
 19 20  1  0  0  0
 20 21  2  0  0  0
 21 22  1  0  0  0
 22 23  2  0  0  0
 23 24  1  0  0  0
 24 25  2  0  0  0
 25 26  1  0  0  0
 26 27  2  0  0  0
  3  4  1  0  0  0
  4  5  2  0  0  0
  4  6  1  0  0  0
  6  7  1  0  0  0
  7  8  1  0  0  0
  8 31  1  0  0  0
 31 32  1  0  0  0
 32 33  2  0  0  0
 33 34  1  0  0  0
 34 35  2  0  0  0
 35 36  1  0  0  0
  8  9  1  0  0  0
  9 10  2  0  0  0
  9 11  1  0  0  0
 11 12  2  0  0  0
 12 13  1  0  0  0
 13 14  2  0  0  0
 14 15  1  0  0  0
 14 16  1  0  0  0
 16 17  2  0  0  0
  6  1  1  0  0  0
 36 32  1  0  0  0
 17 11  1  0  0  0
 27 18  1  0  0  0
 17  6  1  0  0  0
 27 22  1  0  0  0
 34 37  1  0  0  0
 36 38  1  0  0  0
M  CHG 1  34   1
M  END
> <minimizedAffinity>
-8.02961

> <CNNscore>
0.5808185339

> <CNNaffinity>
6.7362337112

> <CNN_VS>
3.9125294685

> <CNNaffinity_variance>
0.0081914626

$$$$



 38 43  0  0  0  0  0  0  0  0999 V2000
    9.4167   -2.6765   25.5064 C   0  0  0  0  0  0  0  0  0  0  0  0
    8.4123   -3.6282   26.0854 C   0  0  0  0  0  0  0  0  0  0  0  0
    7.0456   -3.1669   25.6736 N   0  0  0  0  0  0  0  0  0  0  0  0
    7.2056   -1.9300   24.8402 C   0  0  0  0  0  0  0  0  0  0  0  0
    6.0950   -1.1357   24.2191 O   0  0  0  0  0  0  0  0  0  0  0  0
    8.6710   -1.6269   24.7368 C   0  0  0  0  0  0  0  0  0  0  0  0
    7.7936   -0.6521   24.0089 C   0  0  0  0  0  0  0  0  0  0  0  0
    8.4057    0.4985   23.2664 N   0  0  0  0  0  0  0  0  0  0  0  0
    9.8953    0.6743   23.2517 C   0  0  0  0  0  0  0  0  0  0  0  0
   10.5074    1.8249   22.5091 O   0  0  0  0  0  0  0  0  0  0  0  0
   10.7728   -0.3006   23.9796 C   0  0  0  0  0  0  0  0  0  0  0  0
   12.2623   -0.1248   23.9649 C   0  0  0  0  0  0  0  0  0  0  0  0
   13.1397   -1.0996   24.6928 C   0  0  0  0  0  0  0  0  0  0  0  0
   12.5276   -2.2502   25.4354 C   0  0  0  0  0  0  0  0  0  0  0  0
   13.4051   -3.2250   26.1633 Cl  0  0  0  0  0  0  0  0  0  0  0  0
   11.0380   -2.4260   25.4500 C   0  0  0  0  0  0  0  0  0  0  0  0
   10.1606   -1.4512   24.7222 C   0  0  0  0  0  0  0  0  0  0  0  0
    5.7471   -3.8266   26.0323 C   0  0  0  0  0  0  0  0  0  0  0  0
    4.9843   -4.5948   24.9942 C   0  0  0  0  0  0  0  0  0  0  0  0
    3.6858   -5.2544   25.3529 N   0  0  0  0  0  0  0  0  0  0  0  0
    3.1501   -5.1458   26.7497 C   0  0  0  0  0  0  0  0  0  0  0  0
    3.9130   -4.3776   27.7879 C   0  0  0  0  0  0  0  0  0  0  0  0
    3.3773   -4.2690   29.1849 C   0  0  0  0  0  0  0  0  0  0  0  0
    4.1403   -3.5007   30.2230 C   0  0  0  0  0  0  0  0  0  0  0  0
    5.4388   -2.8411   29.8642 C   0  0  0  0  0  0  0  0  0  0  0  0
    5.9744   -2.9497   28.4674 C   0  0  0  0  0  0  0  0  0  0  0  0
    5.2116   -3.7179   27.4292 C   0  0  0  0  0  0  0  0  0  0  0  0
   10.9056   -2.7597   25.6686 C   0  0  0  0  0  0  0  0  0  0  0  0
   10.6924   -4.4009   27.6713 C   0  0  0  0  0  0  0  0  0  0  0  0
   11.5057   -3.8059   26.5604 O   0  0  0  0  0  0  0  0  0  0  0  0
    7.5282    1.4733   22.5385 C   0  0  0  0  0  0  0  0  0  0  0  0
    7.4042    2.8843   23.0321 C   0  0  0  0  0  0  0  0  0  0  0  0
    6.2564    3.4458   23.8177 C   0  0  0  0  0  0  0  0  0  0  0  0
    6.5490    4.8901   24.0979 N   0  0  0  0  0  0  0  0  0  0  0  0
    7.8777    5.2212   23.4854 C   0  0  0  0  0  0  0  0  0  0  0  0
    8.4062    3.9815   22.8267 N   0  0  0  0  0  0  0  0  0  0  0  0
    5.9706    5.5116   24.5963 H   0  0  0  0  0  0  0  0  0  0  0  0
    9.2607    3.9020   22.3442 H   0  0  0  0  0  0  0  0  0  0  0  0
 29 30  1  0  0  0
 30 28  1  0  0  0
  1 28  1  0  0  0
  1  2  1  0  0  0
  2  3  1  0  0  0
  3 18  1  0  0  0
 18 19  2  0  0  0
 19 20  1  0  0  0
 20 21  2  0  0  0
 21 22  1  0  0  0
 22 23  2  0  0  0
 23 24  1  0  0  0
 24 25  2  0  0  0
 25 26  1  0  0  0
 26 27  2  0  0  0
  3  4  1  0  0  0
  4  5  2  0  0  0
  4  6  1  0  0  0
  6  7  1  0  0  0
  7  8  1  0  0  0
  8 31  1  0  0  0
 31 32  1  0  0  0
 32 33  2  0  0  0
 33 34  1  0  0  0
 34 35  2  0  0  0
 35 36  1  0  0  0
  8  9  1  0  0  0
  9 10  2  0  0  0
  9 11  1  0  0  0
 11 12  2  0  0  0
 12 13  1  0  0  0
 13 14  2  0  0  0
 14 15  1  0  0  0
 14 16  1  0  0  0
 16 17  2  0  0  0
  6  1  1  0  0  0
 36 32  1  0  0  0
 17 11  1  0  0  0
 27 18  1  0  0  0
 17  6  1  0  0  0
 27 22  1  0  0  0
 34 37  1  0  0  0
 36 38  1  0  0  0
M  CHG 1  34   1
M  END
> <minimizedAffinity>
-7.73598

> <CNNscore>
0.5598614216

> <CNNaffinity>
6.8697252274

> <CNN_VS>
3.8460941315

> <CNNaffinity_variance>
0.1648493707

$$$$



 38 43  0  0  0  0  0  0  0  0999 V2000
    5.8682   -3.0933   22.1710 C   0  0  0  0  0  0  0  0  0  0  0  0
    5.0510   -2.4040   21.1188 C   0  0  0  0  0  0  0  0  0  0  0  0
    5.7922   -1.1727   20.6891 N   0  0  0  0  0  0  0  0  0  0  0  0
    7.0673   -1.1011   21.4757 C   0  0  0  0  0  0  0  0  0  0  0  0
    8.1121   -0.0304   21.3658 O   0  0  0  0  0  0  0  0  0  0  0  0
    7.1143   -2.2880   22.3916 C   0  0  0  0  0  0  0  0  0  0  0  0
    8.3061   -1.3841   22.5029 C   0  0  0  0  0  0  0  0  0  0  0  0
    9.4061   -1.7088   23.4696 N   0  0  0  0  0  0  0  0  0  0  0  0
    9.3143   -2.9375   24.3251 C   0  0  0  0  0  0  0  0  0  0  0  0
   10.4143   -3.2622   25.2919 O   0  0  0  0  0  0  0  0  0  0  0  0
    8.1224   -3.8415   24.2139 C   0  0  0  0  0  0  0  0  0  0  0  0
    8.0306   -5.0701   25.0694 C   0  0  0  0  0  0  0  0  0  0  0  0
    6.8387   -5.9740   24.9582 C   0  0  0  0  0  0  0  0  0  0  0  0
    5.7388   -5.6493   23.9915 C   0  0  0  0  0  0  0  0  0  0  0  0
    4.5469   -6.5533   23.8803 Cl  0  0  0  0  0  0  0  0  0  0  0  0
    5.8306   -4.4207   23.1360 C   0  0  0  0  0  0  0  0  0  0  0  0
    7.0224   -3.5168   23.2472 C   0  0  0  0  0  0  0  0  0  0  0  0
    5.3379   -0.1862   19.6544 C   0  0  0  0  0  0  0  0  0  0  0  0
    5.8917   -0.2513   18.2620 C   0  0  0  0  0  0  0  0  0  0  0  0
    5.4375    0.7351   17.2273 N   0  0  0  0  0  0  0  0  0  0  0  0
    4.4294    1.7866   17.5851 C   0  0  0  0  0  0  0  0  0  0  0  0
    3.8756    1.8517   18.9777 C   0  0  0  0  0  0  0  0  0  0  0  0
    2.8674    2.9033   19.3355 C   0  0  0  0  0  0  0  0  0  0  0  0
    2.3137    2.9683   20.7280 C   0  0  0  0  0  0  0  0  0  0  0  0
    2.7679    1.9819   21.7626 C   0  0  0  0  0  0  0  0  0  0  0  0
    3.7760    0.9303   21.4048 C   0  0  0  0  0  0  0  0  0  0  0  0
    4.3298    0.8653   20.0123 C   0  0  0  0  0  0  0  0  0  0  0  0
    5.5032   -4.3646   22.8785 C   0  0  0  0  0  0  0  0  0  0  0  0
    5.6611   -6.0838   20.9370 C   0  0  0  0  0  0  0  0  0  0  0  0
    4.9186   -5.5108   22.1075 O   0  0  0  0  0  0  0  0  0  0  0  0
   10.5980   -0.8048   23.5808 C   0  0  0  0  0  0  0  0  0  0  0  0
   11.8549   -1.2978   24.2344 C   0  0  0  0  0  0  0  0  0  0  0  0
   12.9839   -2.0096   23.5498 C   0  0  0  0  0  0  0  0  0  0  0  0
   14.0302   -2.3173   24.5796 N   0  0  0  0  0  0  0  0  0  0  0  0
   13.5478   -1.7956   25.9008 C   0  0  0  0  0  0  0  0  0  0  0  0
   12.2034   -1.1656   25.6874 N   0  0  0  0  0  0  0  0  0  0  0  0
   14.8836   -2.7803   24.4170 H   0  0  0  0  0  0  0  0  0  0  0  0
   11.6474   -0.7399   26.3794 H   0  0  0  0  0  0  0  0  0  0  0  0
 29 30  1  0  0  0
 30 28  1  0  0  0
  1 28  1  0  0  0
  1  2  1  0  0  0
  2  3  1  0  0  0
  3 18  1  0  0  0
 18 19  2  0  0  0
 19 20  1  0  0  0
 20 21  2  0  0  0
 21 22  1  0  0  0
 22 23  2  0  0  0
 23 24  1  0  0  0
 24 25  2  0  0  0
 25 26  1  0  0  0
 26 27  2  0  0  0
  3  4  1  0  0  0
  4  5  2  0  0  0
  4  6  1  0  0  0
  6  7  1  0  0  0
  7  8  1  0  0  0
  8 31  1  0  0  0
 31 32  1  0  0  0
 32 33  2  0  0  0
 33 34  1  0  0  0
 34 35  2  0  0  0
 35 36  1  0  0  0
  8  9  1  0  0  0
  9 10  2  0  0  0
  9 11  1  0  0  0
 11 12  2  0  0  0
 12 13  1  0  0  0
 13 14  2  0  0  0
 14 15  1  0  0  0
 14 16  1  0  0  0
 16 17  2  0  0  0
  6  1  1  0  0  0
 36 32  1  0  0  0
 17 11  1  0  0  0
 27 18  1  0  0  0
 17  6  1  0  0  0
 27 22  1  0  0  0
 34 37  1  0  0  0
 36 38  1  0  0  0
M  CHG 1  34   1
M  END
> <minimizedAffinity>
-7.80009

> <CNNscore>
0.4233014286

> <CNNaffinity>
6.6676468849

> <CNN_VS>
2.8224244118

> <CNNaffinity_variance>
0.0421375744

$$$$



 38 43  0  0  0  0  0  0  0  0999 V2000
    9.2972   -1.1612   22.4923 C   0  0  0  0  0  0  0  0  0  0  0  0
    8.7841   -0.5433   21.2254 C   0  0  0  0  0  0  0  0  0  0  0  0
    7.2853   -0.5411   21.2847 N   0  0  0  0  0  0  0  0  0  0  0  0
    6.8721   -1.1577   22.5881 C   0  0  0  0  0  0  0  0  0  0  0  0
    5.4628   -1.3562   23.0620 O   0  0  0  0  0  0  0  0  0  0  0  0
    8.1155   -1.5410   23.3345 C   0  0  0  0  0  0  0  0  0  0  0  0
    6.8437   -1.8636   24.0615 C   0  0  0  0  0  0  0  0  0  0  0  0
    6.8962   -2.5127   25.4128 N   0  0  0  0  0  0  0  0  0  0  0  0
    8.2204   -2.8390   26.0371 C   0  0  0  0  0  0  0  0  0  0  0  0
    8.2729   -3.4881   27.3884 O   0  0  0  0  0  0  0  0  0  0  0  0
    9.4923   -2.5164   25.3101 C   0  0  0  0  0  0  0  0  0  0  0  0
   10.8165   -2.8428   25.9345 C   0  0  0  0  0  0  0  0  0  0  0  0
   12.0883   -2.5201   25.2075 C   0  0  0  0  0  0  0  0  0  0  0  0
   12.0358   -1.8711   23.8562 C   0  0  0  0  0  0  0  0  0  0  0  0
   13.3076   -1.5485   23.1293 Cl  0  0  0  0  0  0  0  0  0  0  0  0
   10.7115   -1.5447   23.2319 C   0  0  0  0  0  0  0  0  0  0  0  0
    9.4398   -1.8674   23.9588 C   0  0  0  0  0  0  0  0  0  0  0  0
    6.3618   -0.0147   20.2263 C   0  0  0  0  0  0  0  0  0  0  0  0
    6.3155   -0.6701   18.8779 C   0  0  0  0  0  0  0  0  0  0  0  0
    5.3920   -0.1437   17.8195 N   0  0  0  0  0  0  0  0  0  0  0  0
    4.5149    1.0380   18.1097 C   0  0  0  0  0  0  0  0  0  0  0  0
    4.5613    1.6934   19.4581 C   0  0  0  0  0  0  0  0  0  0  0  0
    3.6841    2.8751   19.7482 C   0  0  0  0  0  0  0  0  0  0  0  0
    3.7305    3.5304   21.0967 C   0  0  0  0  0  0  0  0  0  0  0  0
    4.6540    3.0041   22.1550 C   0  0  0  0  0  0  0  0  0  0  0  0
    5.5311    1.8223   21.8649 C   0  0  0  0  0  0  0  0  0  0  0  0
    5.4847    1.1670   20.5165 C   0  0  0  0  0  0  0  0  0  0  0  0
   10.7389   -1.3638   22.8535 C   0  0  0  0  0  0  0  0  0  0  0  0
   11.2279    1.1811   23.0382 C   0  0  0  0  0  0  0  0  0  0  0  0
   11.7015   -0.2165   22.7698 O   0  0  0  0  0  0  0  0  0  0  0  0
    5.6244   -2.8353   26.1397 C   0  0  0  0  0  0  0  0  0  0  0  0
    5.4846   -2.4950   27.5939 C   0  0  0  0  0  0  0  0  0  0  0  0
    5.2638   -1.1242   28.1613 C   0  0  0  0  0  0  0  0  0  0  0  0
    5.1839   -1.2477   29.6540 N   0  0  0  0  0  0  0  0  0  0  0  0
    5.3553   -2.6950   30.0092 C   0  0  0  0  0  0  0  0  0  0  0  0
    5.5412   -3.4658   28.7360 N   0  0  0  0  0  0  0  0  0  0  0  0
    5.0436   -0.5087   30.2891 H   0  0  0  0  0  0  0  0  0  0  0  0
    5.6765   -4.4382   28.6627 H   0  0  0  0  0  0  0  0  0  0  0  0
 29 30  1  0  0  0
 30 28  1  0  0  0
  1 28  1  0  0  0
  1  2  1  0  0  0
  2  3  1  0  0  0
  3 18  1  0  0  0
 18 19  2  0  0  0
 19 20  1  0  0  0
 20 21  2  0  0  0
 21 22  1  0  0  0
 22 23  2  0  0  0
 23 24  1  0  0  0
 24 25  2  0  0  0
 25 26  1  0  0  0
 26 27  2  0  0  0
  3  4  1  0  0  0
  4  5  2  0  0  0
  4  6  1  0  0  0
  6  7  1  0  0  0
  7  8  1  0  0  0
  8 31  1  0  0  0
 31 32  1  0  0  0
 32 33  2  0  0  0
 33 34  1  0  0  0
 34 35  2  0  0  0
 35 36  1  0  0  0
  8  9  1  0  0  0
  9 10  2  0  0  0
  9 11  1  0  0  0
 11 12  2  0  0  0
 12 13  1  0  0  0
 13 14  2  0  0  0
 14 15  1  0  0  0
 14 16  1  0  0  0
 16 17  2  0  0  0
  6  1  1  0  0  0
 36 32  1  0  0  0
 17 11  1  0  0  0
 27 18  1  0  0  0
 17  6  1  0  0  0
 27 22  1  0  0  0
 34 37  1  0  0  0
 36 38  1  0  0  0
M  CHG 1  34   1
M  END
> <minimizedAffinity>
-8.31757

> <CNNscore>
0.4209592044

> <CNNaffinity>
6.6731162071

> <CNN_VS>
2.8091096878

> <CNNaffinity_variance>
0.0636181384

$$$$



 38 43  0  0  0  0  0  0  0  0999 V2000
    9.3213   -2.6277   25.6233 C   0  0  0  0  0  0  0  0  0  0  0  0
    8.2995   -3.5510   26.2178 C   0  0  0  0  0  0  0  0  0  0  0  0
    6.9420   -3.0761   25.7917 N   0  0  0  0  0  0  0  0  0  0  0  0
    7.1249   -1.8592   24.9338 C   0  0  0  0  0  0  0  0  0  0  0  0
    6.0295   -1.0599   24.2926 O   0  0  0  0  0  0  0  0  0  0  0  0
    8.5953   -1.5821   24.8297 C   0  0  0  0  0  0  0  0  0  0  0  0
    7.7364   -0.6083   24.0789 C   0  0  0  0  0  0  0  0  0  0  0  0
    8.3697    0.5168   23.3153 N   0  0  0  0  0  0  0  0  0  0  0  0
    9.8620    0.6681   23.3026 C   0  0  0  0  0  0  0  0  0  0  0  0
   10.4953    1.7932   22.5390 O   0  0  0  0  0  0  0  0  0  0  0  0
   10.7210   -0.3058   24.0534 C   0  0  0  0  0  0  0  0  0  0  0  0
   12.2133   -0.1546   24.0406 C   0  0  0  0  0  0  0  0  0  0  0  0
   13.0722   -1.1284   24.7914 C   0  0  0  0  0  0  0  0  0  0  0  0
   12.4389   -2.2535   25.5550 C   0  0  0  0  0  0  0  0  0  0  0  0
   13.2980   -3.2274   26.3058 Cl  0  0  0  0  0  0  0  0  0  0  0  0
   10.9467   -2.4048   25.5677 C   0  0  0  0  0  0  0  0  0  0  0  0
   10.0877   -1.4309   24.8170 C   0  0  0  0  0  0  0  0  0  0  0  0
    5.6317   -3.7071   26.1590 C   0  0  0  0  0  0  0  0  0  0  0  0
    5.0168   -3.4330   27.4993 C   0  0  0  0  0  0  0  0  0  0  0  0
    3.7065   -4.0640   27.8666 N   0  0  0  0  0  0  0  0  0  0  0  0
    3.0112   -4.9692   26.8934 C   0  0  0  0  0  0  0  0  0  0  0  0
    3.6261   -5.2433   25.5530 C   0  0  0  0  0  0  0  0  0  0  0  0
    2.9306   -6.1485   24.5798 C   0  0  0  0  0  0  0  0  0  0  0  0
    3.5456   -6.4226   23.2394 C   0  0  0  0  0  0  0  0  0  0  0  0
    4.8559   -5.7916   22.8722 C   0  0  0  0  0  0  0  0  0  0  0  0
    5.5512   -4.8864   23.8454 C   0  0  0  0  0  0  0  0  0  0  0  0
    4.9364   -4.6123   25.1857 C   0  0  0  0  0  0  0  0  0  0  0  0
   10.8081   -2.7318   25.7926 C   0  0  0  0  0  0  0  0  0  0  0  0
   10.6713   -4.4515   27.7352 C   0  0  0  0  0  0  0  0  0  0  0  0
   11.3978   -3.8826   26.5527 O   0  0  0  0  0  0  0  0  0  0  0  0
    7.5107    1.4907   22.5645 C   0  0  0  0  0  0  0  0  0  0  0  0
    7.3721    2.9015   23.0547 C   0  0  0  0  0  0  0  0  0  0  0  0
    7.4020    3.3440   24.4876 C   0  0  0  0  0  0  0  0  0  0  0  0
    7.2276    4.8335   24.5165 N   0  0  0  0  0  0  0  0  0  0  0  0
    7.0900    5.3117   23.1014 C   0  0  0  0  0  0  0  0  0  0  0  0
    7.1793    4.1177   22.1980 N   0  0  0  0  0  0  0  0  0  0  0  0
    7.2071    5.3982   25.3227 H   0  0  0  0  0  0  0  0  0  0  0  0
    7.1215    4.1300   21.2152 H   0  0  0  0  0  0  0  0  0  0  0  0
 29 30  1  0  0  0
 30 28  1  0  0  0
  1 28  1  0  0  0
  1  2  1  0  0  0
  2  3  1  0  0  0
  3 18  1  0  0  0
 18 19  2  0  0  0
 19 20  1  0  0  0
 20 21  2  0  0  0
 21 22  1  0  0  0
 22 23  2  0  0  0
 23 24  1  0  0  0
 24 25  2  0  0  0
 25 26  1  0  0  0
 26 27  2  0  0  0
  3  4  1  0  0  0
  4  5  2  0  0  0
  4  6  1  0  0  0
  6  7  1  0  0  0
  7  8  1  0  0  0
  8 31  1  0  0  0
 31 32  1  0  0  0
 32 33  2  0  0  0
 33 34  1  0  0  0
 34 35  2  0  0  0
 35 36  1  0  0  0
  8  9  1  0  0  0
  9 10  2  0  0  0
  9 11  1  0  0  0
 11 12  2  0  0  0
 12 13  1  0  0  0
 13 14  2  0  0  0
 14 15  1  0  0  0
 14 16  1  0  0  0
 16 17  2  0  0  0
  6  1  1  0  0  0
 36 32  1  0  0  0
 17 11  1  0  0  0
 27 18  1  0  0  0
 17  6  1  0  0  0
 27 22  1  0  0  0
 34 37  1  0  0  0
 36 38  1  0  0  0
M  CHG 1  34   1
M  END
> <minimizedAffinity>
-7.94731

> <CNNscore>
0.3309904337

> <CNNaffinity>
6.6668319702

> <CNN_VS>
2.2066576481

> <CNNaffinity_variance>
0.2402540147

$$$$



 38 43  0  0  0  0  0  0  0  0999 V2000
    9.3869   -2.2253   25.1331 C   0  0  0  0  0  0  0  0  0  0  0  0
    8.6539   -3.2853   25.9007 C   0  0  0  0  0  0  0  0  0  0  0  0
    7.1908   -3.1470   25.6002 N   0  0  0  0  0  0  0  0  0  0  0  0
    7.0197   -2.0015   24.6470 C   0  0  0  0  0  0  0  0  0  0  0  0
    5.7195   -1.5117   24.0817 O   0  0  0  0  0  0  0  0  0  0  0  0
    8.3769   -1.4318   24.3583 C   0  0  0  0  0  0  0  0  0  0  0  0
    7.2576   -0.7323   23.6458 C   0  0  0  0  0  0  0  0  0  0  0  0
    7.5530    0.4271   22.7411 N   0  0  0  0  0  0  0  0  0  0  0  0
    8.9677    0.8871   22.5490 C   0  0  0  0  0  0  0  0  0  0  0  0
    9.2631    2.0466   21.6444 O   0  0  0  0  0  0  0  0  0  0  0  0
   10.0871    0.1876   23.2616 C   0  0  0  0  0  0  0  0  0  0  0  0
   11.5018    0.6476   23.0694 C   0  0  0  0  0  0  0  0  0  0  0  0
   12.6212   -0.0519   23.7819 C   0  0  0  0  0  0  0  0  0  0  0  0
   12.3258   -1.2114   24.6866 C   0  0  0  0  0  0  0  0  0  0  0  0
   13.4452   -1.9109   25.3991 Cl  0  0  0  0  0  0  0  0  0  0  0  0
   10.9111   -1.6714   24.8787 C   0  0  0  0  0  0  0  0  0  0  0  0
    9.7917   -0.9719   24.1662 C   0  0  0  0  0  0  0  0  0  0  0  0
    6.0919   -4.0037   26.1554 C   0  0  0  0  0  0  0  0  0  0  0  0
    5.5223   -5.1202   25.3315 C   0  0  0  0  0  0  0  0  0  0  0  0
    4.4234   -5.9769   25.8868 N   0  0  0  0  0  0  0  0  0  0  0  0
    3.8940   -5.7170   27.2660 C   0  0  0  0  0  0  0  0  0  0  0  0
    4.4636   -4.6005   28.0899 C   0  0  0  0  0  0  0  0  0  0  0  0
    3.9342   -4.3406   29.4692 C   0  0  0  0  0  0  0  0  0  0  0  0
    4.5038   -3.2240   30.2931 C   0  0  0  0  0  0  0  0  0  0  0  0
    5.6027   -2.3674   29.7378 C   0  0  0  0  0  0  0  0  0  0  0  0
    6.1321   -2.6272   28.3586 C   0  0  0  0  0  0  0  0  0  0  0  0
    5.5625   -3.7437   27.5347 C   0  0  0  0  0  0  0  0  0  0  0  0
   10.8697   -1.9985   25.1393 C   0  0  0  0  0  0  0  0  0  0  0  0
   11.2138   -4.2699   26.3527 C   0  0  0  0  0  0  0  0  0  0  0  0
   11.7847   -3.0354   25.7205 O   0  0  0  0  0  0  0  0  0  0  0  0
    6.4335    1.1267   22.0286 C   0  0  0  0  0  0  0  0  0  0  0  0
    6.0223    0.6798   20.6571 C   0  0  0  0  0  0  0  0  0  0  0  0
    4.6936    0.9330   20.0088 C   0  0  0  0  0  0  0  0  0  0  0  0
    4.7176    0.3109   18.6440 N   0  0  0  0  0  0  0  0  0  0  0  0
    6.0613   -0.3267   18.4489 C   0  0  0  0  0  0  0  0  0  0  0  0
    6.8676   -0.0987   19.6930 N   0  0  0  0  0  0  0  0  0  0  0  0
    3.9809    0.3196   17.9911 H   0  0  0  0  0  0  0  0  0  0  0  0
    7.7897   -0.4061   19.8494 H   0  0  0  0  0  0  0  0  0  0  0  0
 29 30  1  0  0  0
 30 28  1  0  0  0
  1 28  1  0  0  0
  1  2  1  0  0  0
  2  3  1  0  0  0
  3 18  1  0  0  0
 18 19  2  0  0  0
 19 20  1  0  0  0
 20 21  2  0  0  0
 21 22  1  0  0  0
 22 23  2  0  0  0
 23 24  1  0  0  0
 24 25  2  0  0  0
 25 26  1  0  0  0
 26 27  2  0  0  0
  3  4  1  0  0  0
  4  5  2  0  0  0
  4  6  1  0  0  0
  6  7  1  0  0  0
  7  8  1  0  0  0
  8 31  1  0  0  0
 31 32  1  0  0  0
 32 33  2  0  0  0
 33 34  1  0  0  0
 34 35  2  0  0  0
 35 36  1  0  0  0
  8  9  1  0  0  0
  9 10  2  0  0  0
  9 11  1  0  0  0
 11 12  2  0  0  0
 12 13  1  0  0  0
 13 14  2  0  0  0
 14 15  1  0  0  0
 14 16  1  0  0  0
 16 17  2  0  0  0
  6  1  1  0  0  0
 36 32  1  0  0  0
 17 11  1  0  0  0
 27 18  1  0  0  0
 17  6  1  0  0  0
 27 22  1  0  0  0
 34 37  1  0  0  0
 36 38  1  0  0  0
M  CHG 1  34   1
M  END
> <minimizedAffinity>
-8.54845

> <CNNscore>
0.2882396579

> <CNNaffinity>
6.5622825623

> <CNN_VS>
1.8915101290

> <CNNaffinity_variance>
0.1139801890

$$$$



 38 43  0  0  0  0  0  0  0  0999 V2000
    8.9098   -1.3129   25.5278 C   0  0  0  0  0  0  0  0  0  0  0  0
    7.4481   -1.2083   25.8478 C   0  0  0  0  0  0  0  0  0  0  0  0
    6.8957   -0.0247   25.1102 N   0  0  0  0  0  0  0  0  0  0  0  0
    8.0161    0.6022   24.3345 C   0  0  0  0  0  0  0  0  0  0  0  0
    7.9103    1.8128   23.4551 O   0  0  0  0  0  0  0  0  0  0  0  0
    9.2609   -0.1939   24.5926 C   0  0  0  0  0  0  0  0  0  0  0  0
    9.4613    0.9684   23.6659 C   0  0  0  0  0  0  0  0  0  0  0  0
   10.8188    1.2430   23.0899 N   0  0  0  0  0  0  0  0  0  0  0  0
   11.9759    0.3553   23.4406 C   0  0  0  0  0  0  0  0  0  0  0  0
   13.3334    0.6299   22.8646 O   0  0  0  0  0  0  0  0  0  0  0  0
   11.7756   -0.8071   24.3673 C   0  0  0  0  0  0  0  0  0  0  0  0
   12.9326   -1.6949   24.7180 C   0  0  0  0  0  0  0  0  0  0  0  0
   12.7322   -2.8572   25.6447 C   0  0  0  0  0  0  0  0  0  0  0  0
   11.3747   -3.1318   26.2207 C   0  0  0  0  0  0  0  0  0  0  0  0
   11.1744   -4.2942   27.1474 Cl  0  0  0  0  0  0  0  0  0  0  0  0
   10.2176   -2.2441   25.8700 C   0  0  0  0  0  0  0  0  0  0  0  0
   10.4181   -1.0817   24.9433 C   0  0  0  0  0  0  0  0  0  0  0  0
    5.4728    0.4489   25.1427 C   0  0  0  0  0  0  0  0  0  0  0  0
    4.5873    0.2454   23.9494 C   0  0  0  0  0  0  0  0  0  0  0  0
    3.1644    0.7190   23.9818 N   0  0  0  0  0  0  0  0  0  0  0  0
    2.6271    1.3961   25.2077 C   0  0  0  0  0  0  0  0  0  0  0  0
    3.5127    1.5996   26.4012 C   0  0  0  0  0  0  0  0  0  0  0  0
    2.9754    2.2767   27.6272 C   0  0  0  0  0  0  0  0  0  0  0  0
    3.8611    2.4801   28.8205 C   0  0  0  0  0  0  0  0  0  0  0  0
    5.2839    2.0065   28.7880 C   0  0  0  0  0  0  0  0  0  0  0  0
    5.8212    1.3295   27.5621 C   0  0  0  0  0  0  0  0  0  0  0  0
    4.9356    1.1260   26.3687 C   0  0  0  0  0  0  0  0  0  0  0  0
    9.8546   -2.3538   26.0513 C   0  0  0  0  0  0  0  0  0  0  0  0
    8.4249   -4.2153   24.9376 C   0  0  0  0  0  0  0  0  0  0  0  0
    9.6336   -3.8006   25.7229 O   0  0  0  0  0  0  0  0  0  0  0  0
   11.0192    2.4054   22.1632 C   0  0  0  0  0  0  0  0  0  0  0  0
   10.8299    3.8061   22.6652 C   0  0  0  0  0  0  0  0  0  0  0  0
   11.9214    4.7572   23.0575 C   0  0  0  0  0  0  0  0  0  0  0  0
   11.2819    6.0406   23.4978 N   0  0  0  0  0  0  0  0  0  0  0  0
    9.7950    5.8827   23.3776 C   0  0  0  0  0  0  0  0  0  0  0  0
    9.5157    4.5017   22.8631 N   0  0  0  0  0  0  0  0  0  0  0  0
   11.7550    6.8453   23.8107 H   0  0  0  0  0  0  0  0  0  0  0  0
    8.6260    4.1191   22.6862 H   0  0  0  0  0  0  0  0  0  0  0  0
 29 30  1  0  0  0
 30 28  1  0  0  0
  1 28  1  0  0  0
  1  2  1  0  0  0
  2  3  1  0  0  0
  3 18  1  0  0  0
 18 19  2  0  0  0
 19 20  1  0  0  0
 20 21  2  0  0  0
 21 22  1  0  0  0
 22 23  2  0  0  0
 23 24  1  0  0  0
 24 25  2  0  0  0
 25 26  1  0  0  0
 26 27  2  0  0  0
  3  4  1  0  0  0
  4  5  2  0  0  0
  4  6  1  0  0  0
  6  7  1  0  0  0
  7  8  1  0  0  0
  8 31  1  0  0  0
 31 32  1  0  0  0
 32 33  2  0  0  0
 33 34  1  0  0  0
 34 35  2  0  0  0
 35 36  1  0  0  0
  8  9  1  0  0  0
  9 10  2  0  0  0
  9 11  1  0  0  0
 11 12  2  0  0  0
 12 13  1  0  0  0
 13 14  2  0  0  0
 14 15  1  0  0  0
 14 16  1  0  0  0
 16 17  2  0  0  0
  6  1  1  0  0  0
 36 32  1  0  0  0
 17 11  1  0  0  0
 27 18  1  0  0  0
 17  6  1  0  0  0
 27 22  1  0  0  0
 34 37  1  0  0  0
 36 38  1  0  0  0
M  CHG 1  34   1
M  END
> <minimizedAffinity>
-7.74972

> <CNNscore>
0.2662294507

> <CNNaffinity>
6.5717267990

> <CNN_VS>
1.7495871782

> <CNNaffinity_variance>
0.0643276423

$$$$



 38 43  0  0  0  0  0  0  0  0999 V2000
    9.3480   -0.5467   23.6423 C   0  0  0  0  0  0  0  0  0  0  0  0
   10.2636    0.6284   23.8181 C   0  0  0  0  0  0  0  0  0  0  0  0
    9.8659    1.6787   22.8237 N   0  0  0  0  0  0  0  0  0  0  0  0
    8.7046    1.1526   22.0334 C   0  0  0  0  0  0  0  0  0  0  0  0
    7.9890    1.8752   20.9307 O   0  0  0  0  0  0  0  0  0  0  0  0
    8.3845   -0.2227   22.5393 C   0  0  0  0  0  0  0  0  0  0  0  0
    7.4942    0.2397   21.4242 C   0  0  0  0  0  0  0  0  0  0  0  0
    6.4023   -0.6546   20.9163 N   0  0  0  0  0  0  0  0  0  0  0  0
    6.2007   -2.0113   21.5235 C   0  0  0  0  0  0  0  0  0  0  0  0
    5.1088   -2.9056   21.0156 O   0  0  0  0  0  0  0  0  0  0  0  0
    7.0910   -2.4737   22.6387 C   0  0  0  0  0  0  0  0  0  0  0  0
    6.8895   -3.8304   23.2459 C   0  0  0  0  0  0  0  0  0  0  0  0
    7.7798   -4.2928   24.3610 C   0  0  0  0  0  0  0  0  0  0  0  0
    8.8717   -3.3985   24.8689 C   0  0  0  0  0  0  0  0  0  0  0  0
    9.7620   -3.8609   25.9841 Cl  0  0  0  0  0  0  0  0  0  0  0  0
    9.0733   -2.0418   24.2617 C   0  0  0  0  0  0  0  0  0  0  0  0
    8.1829   -1.5794   23.1466 C   0  0  0  0  0  0  0  0  0  0  0  0
   10.5155    3.0195   22.6501 C   0  0  0  0  0  0  0  0  0  0  0  0
   11.9437    3.1084   22.2005 C   0  0  0  0  0  0  0  0  0  0  0  0
   12.5933    4.4492   22.0268 N   0  0  0  0  0  0  0  0  0  0  0  0
   11.8147    5.7012   22.3028 C   0  0  0  0  0  0  0  0  0  0  0  0
   10.3864    5.6123   22.7525 C   0  0  0  0  0  0  0  0  0  0  0  0
    9.6077    6.8644   23.0285 C   0  0  0  0  0  0  0  0  0  0  0  0
    8.1794    6.7754   23.4781 C   0  0  0  0  0  0  0  0  0  0  0  0
    7.5299    5.4346   23.6517 C   0  0  0  0  0  0  0  0  0  0  0  0
    8.3086    4.1826   23.3757 C   0  0  0  0  0  0  0  0  0  0  0  0
    9.7368    4.2715   22.9261 C   0  0  0  0  0  0  0  0  0  0  0  0
    9.3888   -1.8219   24.4311 C   0  0  0  0  0  0  0  0  0  0  0  0
   11.9546   -2.1223   24.1547 C   0  0  0  0  0  0  0  0  0  0  0  0
   10.5910   -2.7154   24.3509 O   0  0  0  0  0  0  0  0  0  0  0  0
    5.5119   -0.1922   19.8012 C   0  0  0  0  0  0  0  0  0  0  0  0
    4.8277    1.1395   19.8909 C   0  0  0  0  0  0  0  0  0  0  0  0
    3.9427    1.7484   18.8439 C   0  0  0  0  0  0  0  0  0  0  0  0
    3.4763    3.0814   19.3493 N   0  0  0  0  0  0  0  0  0  0  0  0
    4.0730    3.2965   20.7086 C   0  0  0  0  0  0  0  0  0  0  0  0
    4.9082    2.0964   21.0433 N   0  0  0  0  0  0  0  0  0  0  0  0
    2.8827    3.7056   18.8725 H   0  0  0  0  0  0  0  0  0  0  0  0
    5.4195    1.9605   21.8736 H   0  0  0  0  0  0  0  0  0  0  0  0
 29 30  1  0  0  0
 30 28  1  0  0  0
  1 28  1  0  0  0
  1  2  1  0  0  0
  2  3  1  0  0  0
  3 18  1  0  0  0
 18 19  2  0  0  0
 19 20  1  0  0  0
 20 21  2  0  0  0
 21 22  1  0  0  0
 22 23  2  0  0  0
 23 24  1  0  0  0
 24 25  2  0  0  0
 25 26  1  0  0  0
 26 27  2  0  0  0
  3  4  1  0  0  0
  4  5  2  0  0  0
  4  6  1  0  0  0
  6  7  1  0  0  0
  7  8  1  0  0  0
  8 31  1  0  0  0
 31 32  1  0  0  0
 32 33  2  0  0  0
 33 34  1  0  0  0
 34 35  2  0  0  0
 35 36  1  0  0  0
  8  9  1  0  0  0
  9 10  2  0  0  0
  9 11  1  0  0  0
 11 12  2  0  0  0
 12 13  1  0  0  0
 13 14  2  0  0  0
 14 15  1  0  0  0
 14 16  1  0  0  0
 16 17  2  0  0  0
  6  1  1  0  0  0
 36 32  1  0  0  0
 17 11  1  0  0  0
 27 18  1  0  0  0
 17  6  1  0  0  0
 27 22  1  0  0  0
 34 37  1  0  0  0
 36 38  1  0  0  0
M  CHG 1  34   1
M  END
> <minimizedAffinity>
-8.62256

> <CNNscore>
0.2543184757

> <CNNaffinity>
6.5109534264

> <CNN_VS>
1.6558557749

> <CNNaffinity_variance>
0.1130513996

$$$$
