


 35 40  0  0  0  0  0  0  0  0999 V2000
   -7.2537   -0.2517  -21.3348 C   0  0  0  0  0  0  0  0  0  0  0  0
   -8.4825   -0.3407  -22.1906 C   0  0  0  0  0  0  0  0  0  0  0  0
   -9.2275    0.9602  -22.2410 C   0  0  0  0  0  0  0  0  0  0  0  0
  -10.4318    0.7711  -23.1149 N   0  0  0  0  0  0  0  0  0  0  0  0
  -10.4311   -0.6467  -23.6047 C   0  0  0  0  0  0  0  0  0  0  0  0
  -11.4553   -1.2682  -24.5072 O   0  0  0  0  0  0  0  0  0  0  0  0
   -9.2263   -1.3339  -23.0334 C   0  0  0  0  0  0  0  0  0  0  0  0
  -10.0732   -2.2123  -23.9057 C   0  0  0  0  0  0  0  0  0  0  0  0
   -9.6812   -3.6416  -24.1367 N   0  0  0  0  0  0  0  0  0  0  0  0
   -8.4422   -4.1925  -23.4953 C   0  0  0  0  0  0  0  0  0  0  0  0
   -8.0501   -5.6218  -23.7263 O   0  0  0  0  0  0  0  0  0  0  0  0
   -7.5952   -3.3140  -22.6229 C   0  0  0  0  0  0  0  0  0  0  0  0
   -6.3562   -3.8649  -21.9816 C   0  0  0  0  0  0  0  0  0  0  0  0
   -5.5093   -2.9865  -21.1092 C   0  0  0  0  0  0  0  0  0  0  0  0
   -5.9013   -1.5571  -20.8783 C   0  0  0  0  0  0  0  0  0  0  0  0
   -5.0543   -0.6787  -20.0059 F   0  0  0  0  0  0  0  0  0  0  0  0
   -7.1403   -1.0063  -21.5196 C   0  0  0  0  0  0  0  0  0  0  0  0
   -7.9873   -1.8847  -22.3920 C   0  0  0  0  0  0  0  0  0  0  0  0
  -11.4569    1.8162  -23.4418 C   0  0  0  0  0  0  0  0  0  0  0  0
  -12.8268    1.7386  -22.8357 C   0  0  0  0  0  0  0  0  0  0  0  0
  -13.8518    2.7837  -23.1626 N   0  0  0  0  0  0  0  0  0  0  0  0
  -13.5070    3.9065  -24.0955 C   0  0  0  0  0  0  0  0  0  0  0  0
  -12.1371    3.9842  -24.7016 C   0  0  0  0  0  0  0  0  0  0  0  0
  -11.7923    5.1071  -25.6346 C   0  0  0  0  0  0  0  0  0  0  0  0
  -10.4223    5.1846  -26.2406 C   0  0  0  0  0  0  0  0  0  0  0  0
   -9.3973    4.1395  -25.9137 C   0  0  0  0  0  0  0  0  0  0  0  0
   -9.7422    3.0167  -24.9808 C   0  0  0  0  0  0  0  0  0  0  0  0
  -11.1120    2.9390  -24.3748 C   0  0  0  0  0  0  0  0  0  0  0  0
  -10.5282   -4.5201  -25.0091 C   0  0  0  0  0  0  0  0  0  0  0  0
   -9.8901   -5.3464  -26.0861 C   0  0  0  0  0  0  0  0  0  0  0  0
   -9.1712   -4.8193  -27.2925 C   0  0  0  0  0  0  0  0  0  0  0  0
   -8.6957   -5.9920  -28.0979 C   0  0  0  0  0  0  0  0  0  0  0  0
   -9.1207   -7.2439  -27.3892 N   0  0  0  0  0  0  0  0  0  0  0  0
   -9.8589   -6.8449  -26.1459 N   0  0  0  0  0  0  0  0  0  0  0  0
   -8.9458   -8.1656  -27.6877 H   0  0  0  0  0  0  0  0  0  0  0  0
  2  1  1  0  0  0
  2  3  1  0  0  0
  3  4  1  0  0  0
  4 19  1  0  0  0
 19 20  2  0  0  0
 20 21  1  0  0  0
 21 22  2  0  0  0
 22 23  1  0  0  0
 23 24  2  0  0  0
 24 25  1  0  0  0
 25 26  2  0  0  0
 26 27  1  0  0  0
 27 28  2  0  0  0
  4  5  1  0  0  0
  5  6  2  0  0  0
  5  7  1  0  0  0
  7  8  1  0  0  0
  8  9  1  0  0  0
  9 29  1  0  0  0
 29 30  1  0  0  0
 30 31  1  0  0  0
 31 32  2  0  0  0
 32 33  1  0  0  0
 33 34  1  0  0  0
  9 10  1  0  0  0
 10 11  2  0  0  0
 10 12  1  0  0  0
 12 13  2  0  0  0
 13 14  1  0  0  0
 14 15  2  0  0  0
 15 16  1  0  0  0
 15 17  1  0  0  0
 17 18  2  0  0  0
  7  2  1  0  0  0
 34 30  2  0  0  0
 18 12  1  0  0  0
 28 19  1  0  0  0
 18  7  1  0  0  0
 28 23  1  0  0  0
 33 35  1  0  0  0
M  END
> <minimizedAffinity>
-9.21336

> <CNNscore>
0.5232551098

> <CNNaffinity>
6.2651476860

> <CNN_VS>
3.2782704830

> <CNNaffinity_variance>
0.3654734790

$$$$



 35 40  0  0  0  0  0  0  0  0999 V2000
   -9.5119   -2.5254  -23.7171 C   0  0  0  0  0  0  0  0  0  0  0  0
   -8.2686   -2.7373  -22.9050 C   0  0  0  0  0  0  0  0  0  0  0  0
   -8.0138   -1.6001  -21.9606 C   0  0  0  0  0  0  0  0  0  0  0  0
   -6.7577   -1.9029  -21.1986 N   0  0  0  0  0  0  0  0  0  0  0  0
   -6.2362   -3.2272  -21.6722 C   0  0  0  0  0  0  0  0  0  0  0  0
   -4.9982   -3.9150  -21.1779 O   0  0  0  0  0  0  0  0  0  0  0  0
   -7.1699   -3.7429  -22.7268 C   0  0  0  0  0  0  0  0  0  0  0  0
   -6.0120   -4.6521  -22.4397 C   0  0  0  0  0  0  0  0  0  0  0  0
   -5.8718   -5.9461  -23.1852 N   0  0  0  0  0  0  0  0  0  0  0  0
   -6.8894   -6.3310  -24.2178 C   0  0  0  0  0  0  0  0  0  0  0  0
   -6.7492   -7.6250  -24.9633 O   0  0  0  0  0  0  0  0  0  0  0  0
   -8.0474   -5.4217  -24.5049 C   0  0  0  0  0  0  0  0  0  0  0  0
   -9.0651   -5.8065  -25.5375 C   0  0  0  0  0  0  0  0  0  0  0  0
  -10.2230   -4.8973  -25.8246 C   0  0  0  0  0  0  0  0  0  0  0  0
  -10.3633   -3.6032  -25.0791 C   0  0  0  0  0  0  0  0  0  0  0  0
  -11.5213   -2.6940  -25.3662 F   0  0  0  0  0  0  0  0  0  0  0  0
   -9.3456   -3.2184  -24.0465 C   0  0  0  0  0  0  0  0  0  0  0  0
   -8.1877   -4.1276  -23.7594 C   0  0  0  0  0  0  0  0  0  0  0  0
   -6.1329   -1.0340  -20.1477 C   0  0  0  0  0  0  0  0  0  0  0  0
   -6.6895   -1.0236  -18.7549 C   0  0  0  0  0  0  0  0  0  0  0  0
   -6.0646   -0.1547  -17.7039 N   0  0  0  0  0  0  0  0  0  0  0  0
   -4.8831    0.7038  -18.0458 C   0  0  0  0  0  0  0  0  0  0  0  0
   -4.3265    0.6935  -19.4387 C   0  0  0  0  0  0  0  0  0  0  0  0
   -3.1449    1.5521  -19.7806 C   0  0  0  0  0  0  0  0  0  0  0  0
   -2.5883    1.5416  -21.1735 C   0  0  0  0  0  0  0  0  0  0  0  0
   -3.2132    0.6727  -22.2244 C   0  0  0  0  0  0  0  0  0  0  0  0
   -4.3947   -0.1858  -21.8825 C   0  0  0  0  0  0  0  0  0  0  0  0
   -4.9513   -0.1754  -20.4897 C   0  0  0  0  0  0  0  0  0  0  0  0
   -4.7138   -6.8554  -22.8981 C   0  0  0  0  0  0  0  0  0  0  0  0
   -3.4976   -6.8208  -23.7754 C   0  0  0  0  0  0  0  0  0  0  0  0
   -2.1018   -7.1825  -23.3620 C   0  0  0  0  0  0  0  0  0  0  0  0
   -1.2051   -7.0037  -24.5511 C   0  0  0  0  0  0  0  0  0  0  0  0
   -2.0468   -6.5315  -25.6995 N   0  0  0  0  0  0  0  0  0  0  0  0
   -3.4636   -6.4184  -25.2200 N   0  0  0  0  0  0  0  0  0  0  0  0
   -1.7257   -6.3309  -26.6083 H   0  0  0  0  0  0  0  0  0  0  0  0
  2  1  1  0  0  0
  2  3  1  0  0  0
  3  4  1  0  0  0
  4 19  1  0  0  0
 19 20  2  0  0  0
 20 21  1  0  0  0
 21 22  2  0  0  0
 22 23  1  0  0  0
 23 24  2  0  0  0
 24 25  1  0  0  0
 25 26  2  0  0  0
 26 27  1  0  0  0
 27 28  2  0  0  0
  4  5  1  0  0  0
  5  6  2  0  0  0
  5  7  1  0  0  0
  7  8  1  0  0  0
  8  9  1  0  0  0
  9 29  1  0  0  0
 29 30  1  0  0  0
 30 31  1  0  0  0
 31 32  2  0  0  0
 32 33  1  0  0  0
 33 34  1  0  0  0
  9 10  1  0  0  0
 10 11  2  0  0  0
 10 12  1  0  0  0
 12 13  2  0  0  0
 13 14  1  0  0  0
 14 15  2  0  0  0
 15 16  1  0  0  0
 15 17  1  0  0  0
 17 18  2  0  0  0
  7  2  1  0  0  0
 34 30  2  0  0  0
 18 12  1  0  0  0
 28 19  1  0  0  0
 18  7  1  0  0  0
 28 23  1  0  0  0
 33 35  1  0  0  0
M  END
> <minimizedAffinity>
-8.33939

> <CNNscore>
0.4900731742

> <CNNaffinity>
6.4672455788

> <CNN_VS>
3.1694235802

> <CNNaffinity_variance>
0.0914225653

$$$$



 35 40  0  0  0  0  0  0  0  0999 V2000
   -5.8353   -5.4040  -23.3446 C   0  0  0  0  0  0  0  0  0  0  0  0
   -6.4696   -4.1906  -22.7318 C   0  0  0  0  0  0  0  0  0  0  0  0
   -5.5767   -3.5425  -21.7156 C   0  0  0  0  0  0  0  0  0  0  0  0
   -6.2944   -2.3467  -21.1635 N   0  0  0  0  0  0  0  0  0  0  0  0
   -7.6308   -2.2557  -21.8385 C   0  0  0  0  0  0  0  0  0  0  0  0
   -8.6756   -1.2089  -21.5881 O   0  0  0  0  0  0  0  0  0  0  0  0
   -7.7391   -3.3953  -22.8078 C   0  0  0  0  0  0  0  0  0  0  0  0
   -8.9467   -2.5061  -22.7742 C   0  0  0  0  0  0  0  0  0  0  0  0
  -10.1187   -2.7990  -23.6633 N   0  0  0  0  0  0  0  0  0  0  0  0
  -10.0832   -3.9811  -24.5860 C   0  0  0  0  0  0  0  0  0  0  0  0
  -11.2552   -4.2740  -25.4752 O   0  0  0  0  0  0  0  0  0  0  0  0
   -8.8756   -4.8703  -24.6196 C   0  0  0  0  0  0  0  0  0  0  0  0
   -8.8401   -6.0524  -25.5423 C   0  0  0  0  0  0  0  0  0  0  0  0
   -7.6326   -6.9416  -25.5759 C   0  0  0  0  0  0  0  0  0  0  0  0
   -6.4605   -6.6487  -24.6868 C   0  0  0  0  0  0  0  0  0  0  0  0
   -5.2529   -7.5379  -24.7204 F   0  0  0  0  0  0  0  0  0  0  0  0
   -6.4960   -5.4666  -23.7641 C   0  0  0  0  0  0  0  0  0  0  0  0
   -7.7036   -4.5775  -23.7305 C   0  0  0  0  0  0  0  0  0  0  0  0
   -5.7681   -1.4068  -20.1196 C   0  0  0  0  0  0  0  0  0  0  0  0
   -6.2087   -1.5478  -18.6928 C   0  0  0  0  0  0  0  0  0  0  0  0
   -5.6824   -0.6079  -17.6490 N   0  0  0  0  0  0  0  0  0  0  0  0
   -4.7154    0.4730  -18.0320 C   0  0  0  0  0  0  0  0  0  0  0  0
   -4.2748    0.6140  -19.4589 C   0  0  0  0  0  0  0  0  0  0  0  0
   -3.3078    1.6949  -19.8420 C   0  0  0  0  0  0  0  0  0  0  0  0
   -2.8672    1.8358  -21.2689 C   0  0  0  0  0  0  0  0  0  0  0  0
   -3.3936    0.8959  -22.3126 C   0  0  0  0  0  0  0  0  0  0  0  0
   -4.3605   -0.1849  -21.9296 C   0  0  0  0  0  0  0  0  0  0  0  0
   -4.8011   -0.3259  -20.5028 C   0  0  0  0  0  0  0  0  0  0  0  0
  -11.3263   -1.9098  -23.6297 C   0  0  0  0  0  0  0  0  0  0  0  0
  -11.1690   -0.4254  -23.7773 C   0  0  0  0  0  0  0  0  0  0  0  0
  -12.1204    0.6169  -23.2690 C   0  0  0  0  0  0  0  0  0  0  0  0
  -11.5721    1.9638  -23.6365 C   0  0  0  0  0  0  0  0  0  0  0  0
  -10.2816    1.7540  -24.3720 N   0  0  0  0  0  0  0  0  0  0  0  0
  -10.0325    0.2774  -24.4590 N   0  0  0  0  0  0  0  0  0  0  0  0
   -9.7003    2.4612  -24.7341 H   0  0  0  0  0  0  0  0  0  0  0  0
  2  1  1  0  0  0
  2  3  1  0  0  0
  3  4  1  0  0  0
  4 19  1  0  0  0
 19 20  2  0  0  0
 20 21  1  0  0  0
 21 22  2  0  0  0
 22 23  1  0  0  0
 23 24  2  0  0  0
 24 25  1  0  0  0
 25 26  2  0  0  0
 26 27  1  0  0  0
 27 28  2  0  0  0
  4  5  1  0  0  0
  5  6  2  0  0  0
  5  7  1  0  0  0
  7  8  1  0  0  0
  8  9  1  0  0  0
  9 29  1  0  0  0
 29 30  1  0  0  0
 30 31  1  0  0  0
 31 32  2  0  0  0
 32 33  1  0  0  0
 33 34  1  0  0  0
  9 10  1  0  0  0
 10 11  2  0  0  0
 10 12  1  0  0  0
 12 13  2  0  0  0
 13 14  1  0  0  0
 14 15  2  0  0  0
 15 16  1  0  0  0
 15 17  1  0  0  0
 17 18  2  0  0  0
  7  2  1  0  0  0
 34 30  2  0  0  0
 18 12  1  0  0  0
 28 19  1  0  0  0
 18  7  1  0  0  0
 28 23  1  0  0  0
 33 35  1  0  0  0
M  END
> <minimizedAffinity>
-8.93625

> <CNNscore>
0.2998236120

> <CNNaffinity>
6.0195465088

> <CNN_VS>
1.8048021793

> <CNNaffinity_variance>
0.2155012786

$$$$



 35 40  0  0  0  0  0  0  0  0999 V2000
   -8.3610   -2.7183  -25.8006 C   0  0  0  0  0  0  0  0  0  0  0  0
   -8.5741   -1.7825  -24.6478 C   0  0  0  0  0  0  0  0  0  0  0  0
   -9.5169   -0.6687  -24.9952 C   0  0  0  0  0  0  0  0  0  0  0  0
   -9.6647    0.2074  -23.7866 N   0  0  0  0  0  0  0  0  0  0  0  0
   -8.8132   -0.3649  -22.6923 C   0  0  0  0  0  0  0  0  0  0  0  0
   -8.6622    0.1945  -21.3087 O   0  0  0  0  0  0  0  0  0  0  0  0
   -8.1392   -1.5947  -23.2245 C   0  0  0  0  0  0  0  0  0  0  0  0
   -7.7955   -1.2792  -21.7990 C   0  0  0  0  0  0  0  0  0  0  0  0
   -6.8522   -2.1656  -21.0411 N   0  0  0  0  0  0  0  0  0  0  0  0
   -6.2526   -3.3676  -21.7087 C   0  0  0  0  0  0  0  0  0  0  0  0
   -5.3094   -4.2540  -20.9508 O   0  0  0  0  0  0  0  0  0  0  0  0
   -6.5963   -3.6831  -23.1343 C   0  0  0  0  0  0  0  0  0  0  0  0
   -5.9967   -4.8851  -23.8020 C   0  0  0  0  0  0  0  0  0  0  0  0
   -6.3404   -5.2006  -25.2275 C   0  0  0  0  0  0  0  0  0  0  0  0
   -7.2837   -4.3142  -25.9855 C   0  0  0  0  0  0  0  0  0  0  0  0
   -7.6274   -4.6297  -27.4111 F   0  0  0  0  0  0  0  0  0  0  0  0
   -7.8833   -3.1122  -25.3178 C   0  0  0  0  0  0  0  0  0  0  0  0
   -7.5396   -2.7967  -23.8923 C   0  0  0  0  0  0  0  0  0  0  0  0
  -10.5146    1.4396  -23.6894 C   0  0  0  0  0  0  0  0  0  0  0  0
  -11.9998    1.3147  -23.5207 C   0  0  0  0  0  0  0  0  0  0  0  0
  -12.8498    2.5468  -23.4235 N   0  0  0  0  0  0  0  0  0  0  0  0
  -12.2145    3.9038  -23.4950 C   0  0  0  0  0  0  0  0  0  0  0  0
  -10.7292    4.0286  -23.6637 C   0  0  0  0  0  0  0  0  0  0  0  0
  -10.0939    5.3856  -23.7352 C   0  0  0  0  0  0  0  0  0  0  0  0
   -8.6086    5.5103  -23.9039 C   0  0  0  0  0  0  0  0  0  0  0  0
   -7.7588    4.2782  -24.0011 C   0  0  0  0  0  0  0  0  0  0  0  0
   -8.3941    2.9213  -23.9296 C   0  0  0  0  0  0  0  0  0  0  0  0
   -9.8792    2.7965  -23.7609 C   0  0  0  0  0  0  0  0  0  0  0  0
   -6.5085   -1.8500  -19.6154 C   0  0  0  0  0  0  0  0  0  0  0  0
   -5.6110   -0.6905  -19.2993 C   0  0  0  0  0  0  0  0  0  0  0  0
   -4.6852   -0.0048  -20.2598 C   0  0  0  0  0  0  0  0  0  0  0  0
   -3.9837    1.0964  -19.5213 C   0  0  0  0  0  0  0  0  0  0  0  0
   -4.4761    1.0912  -18.1044 N   0  0  0  0  0  0  0  0  0  0  0  0
   -5.4818   -0.0131  -17.9672 N   0  0  0  0  0  0  0  0  0  0  0  0
   -4.1894    1.7049  -17.3899 H   0  0  0  0  0  0  0  0  0  0  0  0
  2  1  1  0  0  0
  2  3  1  0  0  0
  3  4  1  0  0  0
  4 19  1  0  0  0
 19 20  2  0  0  0
 20 21  1  0  0  0
 21 22  2  0  0  0
 22 23  1  0  0  0
 23 24  2  0  0  0
 24 25  1  0  0  0
 25 26  2  0  0  0
 26 27  1  0  0  0
 27 28  2  0  0  0
  4  5  1  0  0  0
  5  6  2  0  0  0
  5  7  1  0  0  0
  7  8  1  0  0  0
  8  9  1  0  0  0
  9 29  1  0  0  0
 29 30  1  0  0  0
 30 31  1  0  0  0
 31 32  2  0  0  0
 32 33  1  0  0  0
 33 34  1  0  0  0
  9 10  1  0  0  0
 10 11  2  0  0  0
 10 12  1  0  0  0
 12 13  2  0  0  0
 13 14  1  0  0  0
 14 15  2  0  0  0
 15 16  1  0  0  0
 15 17  1  0  0  0
 17 18  2  0  0  0
  7  2  1  0  0  0
 34 30  2  0  0  0
 18 12  1  0  0  0
 28 19  1  0  0  0
 18  7  1  0  0  0
 28 23  1  0  0  0
 33 35  1  0  0  0
M  END
> <minimizedAffinity>
-8.07929

> <CNNscore>
0.2643530965

> <CNNaffinity>
6.3097524643

> <CNN_VS>
1.6680026054

> <CNNaffinity_variance>
0.0644997731

$$$$



 35 40  0  0  0  0  0  0  0  0999 V2000
   -9.5899   -4.6216  -25.2011 C   0  0  0  0  0  0  0  0  0  0  0  0
   -9.5170   -3.4043  -24.3276 C   0  0  0  0  0  0  0  0  0  0  0  0
  -10.6029   -2.4193  -24.6449 C   0  0  0  0  0  0  0  0  0  0  0  0
  -10.4465   -1.2447  -23.7251 N   0  0  0  0  0  0  0  0  0  0  0  0
   -9.2639   -1.5039  -22.8394 C   0  0  0  0  0  0  0  0  0  0  0  0
   -8.7467   -0.5889  -21.7692 O   0  0  0  0  0  0  0  0  0  0  0  0
   -8.6895   -2.8385  -23.2118 C   0  0  0  0  0  0  0  0  0  0  0  0
   -7.9578   -2.1484  -22.0990 C   0  0  0  0  0  0  0  0  0  0  0  0
   -6.7652   -2.8025  -21.4666 N   0  0  0  0  0  0  0  0  0  0  0  0
   -6.3044   -4.1467  -21.9469 C   0  0  0  0  0  0  0  0  0  0  0  0
   -5.1118   -4.8008  -21.3145 O   0  0  0  0  0  0  0  0  0  0  0  0
   -7.0361   -4.8369  -23.0597 C   0  0  0  0  0  0  0  0  0  0  0  0
   -6.5753   -6.1811  -23.5400 C   0  0  0  0  0  0  0  0  0  0  0  0
   -7.3071   -6.8712  -24.6527 C   0  0  0  0  0  0  0  0  0  0  0  0
   -8.4996   -6.2171  -25.2852 C   0  0  0  0  0  0  0  0  0  0  0  0
   -9.2314   -6.9073  -26.3980 F   0  0  0  0  0  0  0  0  0  0  0  0
   -8.9605   -4.8729  -24.8049 C   0  0  0  0  0  0  0  0  0  0  0  0
   -8.2287   -4.1828  -23.6921 C   0  0  0  0  0  0  0  0  0  0  0  0
  -11.3193   -0.0252  -23.6961 C   0  0  0  0  0  0  0  0  0  0  0  0
  -12.7617   -0.1444  -23.3023 C   0  0  0  0  0  0  0  0  0  0  0  0
  -13.6345    1.0751  -23.2733 N   0  0  0  0  0  0  0  0  0  0  0  0
  -13.0649    2.4139  -23.6381 C   0  0  0  0  0  0  0  0  0  0  0  0
  -11.6224    2.5332  -24.0320 C   0  0  0  0  0  0  0  0  0  0  0  0
  -11.0528    3.8720  -24.3968 C   0  0  0  0  0  0  0  0  0  0  0  0
   -9.6103    3.9912  -24.7906 C   0  0  0  0  0  0  0  0  0  0  0  0
   -8.7376    2.7717  -24.8195 C   0  0  0  0  0  0  0  0  0  0  0  0
   -9.3072    1.4329  -24.4547 C   0  0  0  0  0  0  0  0  0  0  0  0
  -10.7496    1.3136  -24.0610 C   0  0  0  0  0  0  0  0  0  0  0  0
   -6.0334   -2.1123  -20.3538 C   0  0  0  0  0  0  0  0  0  0  0  0
   -5.1141   -0.9667  -20.6579 C   0  0  0  0  0  0  0  0  0  0  0  0
   -4.5786   -0.6011  -22.0104 C   0  0  0  0  0  0  0  0  0  0  0  0
   -3.7024    0.6060  -21.8513 C   0  0  0  0  0  0  0  0  0  0  0  0
   -3.6965    0.9864  -20.4003 N   0  0  0  0  0  0  0  0  0  0  0  0
   -4.5690    0.0144  -19.6627 N   0  0  0  0  0  0  0  0  0  0  0  0
   -3.2061    1.7415  -20.0020 H   0  0  0  0  0  0  0  0  0  0  0  0
  2  1  1  0  0  0
  2  3  1  0  0  0
  3  4  1  0  0  0
  4 19  1  0  0  0
 19 20  2  0  0  0
 20 21  1  0  0  0
 21 22  2  0  0  0
 22 23  1  0  0  0
 23 24  2  0  0  0
 24 25  1  0  0  0
 25 26  2  0  0  0
 26 27  1  0  0  0
 27 28  2  0  0  0
  4  5  1  0  0  0
  5  6  2  0  0  0
  5  7  1  0  0  0
  7  8  1  0  0  0
  8  9  1  0  0  0
  9 29  1  0  0  0
 29 30  1  0  0  0
 30 31  1  0  0  0
 31 32  2  0  0  0
 32 33  1  0  0  0
 33 34  1  0  0  0
  9 10  1  0  0  0
 10 11  2  0  0  0
 10 12  1  0  0  0
 12 13  2  0  0  0
 13 14  1  0  0  0
 14 15  2  0  0  0
 15 16  1  0  0  0
 15 17  1  0  0  0
 17 18  2  0  0  0
  7  2  1  0  0  0
 34 30  2  0  0  0
 18 12  1  0  0  0
 28 19  1  0  0  0
 18  7  1  0  0  0
 28 23  1  0  0  0
 33 35  1  0  0  0
M  END
> <minimizedAffinity>
-8.37746

> <CNNscore>
0.2527627349

> <CNNaffinity>
6.2025518417

> <CNN_VS>
1.5677739382

> <CNNaffinity_variance>
0.0769018605

$$$$



 35 40  0  0  0  0  0  0  0  0999 V2000
  -11.7899   -1.6201  -23.2458 C   0  0  0  0  0  0  0  0  0  0  0  0
  -10.2972   -1.6166  -23.3938 C   0  0  0  0  0  0  0  0  0  0  0  0
   -9.7127   -2.9877  -23.2249 C   0  0  0  0  0  0  0  0  0  0  0  0
   -8.2256   -2.8810  -23.3894 N   0  0  0  0  0  0  0  0  0  0  0  0
   -7.8910   -1.4440  -23.6599 C   0  0  0  0  0  0  0  0  0  0  0  0
   -6.5173   -0.8864  -23.8877 O   0  0  0  0  0  0  0  0  0  0  0  0
   -9.1714   -0.6625  -23.6626 C   0  0  0  0  0  0  0  0  0  0  0  0
   -7.9492    0.1680  -23.9206 C   0  0  0  0  0  0  0  0  0  0  0  0
   -8.0807    1.6442  -24.1516 N   0  0  0  0  0  0  0  0  0  0  0  0
   -9.4343    2.2900  -24.1246 C   0  0  0  0  0  0  0  0  0  0  0  0
   -9.5657    3.7662  -24.3556 O   0  0  0  0  0  0  0  0  0  0  0  0
  -10.6565    1.4595  -23.8667 C   0  0  0  0  0  0  0  0  0  0  0  0
  -12.0101    2.1052  -23.8397 C   0  0  0  0  0  0  0  0  0  0  0  0
  -13.2322    1.2747  -23.5818 C   0  0  0  0  0  0  0  0  0  0  0  0
  -13.1008   -0.2015  -23.3508 C   0  0  0  0  0  0  0  0  0  0  0  0
  -14.3230   -1.0321  -23.0928 F   0  0  0  0  0  0  0  0  0  0  0  0
  -11.7472   -0.8473  -23.3777 C   0  0  0  0  0  0  0  0  0  0  0  0
  -10.5251   -0.0168  -23.6357 C   0  0  0  0  0  0  0  0  0  0  0  0
   -7.2451   -4.0126  -23.2992 C   0  0  0  0  0  0  0  0  0  0  0  0
   -6.4608   -4.2267  -22.0387 C   0  0  0  0  0  0  0  0  0  0  0  0
   -5.4803   -5.3583  -21.9485 N   0  0  0  0  0  0  0  0  0  0  0  0
   -5.2842   -6.2758  -23.1188 C   0  0  0  0  0  0  0  0  0  0  0  0
   -6.0686   -6.0616  -24.3794 C   0  0  0  0  0  0  0  0  0  0  0  0
   -5.8724   -6.9792  -25.5498 C   0  0  0  0  0  0  0  0  0  0  0  0
   -6.6568   -6.7650  -26.8103 C   0  0  0  0  0  0  0  0  0  0  0  0
   -7.6372   -5.6334  -26.9004 C   0  0  0  0  0  0  0  0  0  0  0  0
   -7.8333   -4.7159  -25.7301 C   0  0  0  0  0  0  0  0  0  0  0  0
   -7.0490   -4.9300  -24.4696 C   0  0  0  0  0  0  0  0  0  0  0  0
   -6.8584    2.4747  -24.4095 C   0  0  0  0  0  0  0  0  0  0  0  0
   -6.6129    3.7175  -23.6063 C   0  0  0  0  0  0  0  0  0  0  0  0
   -6.1609    5.0417  -24.1468 C   0  0  0  0  0  0  0  0  0  0  0  0
   -6.0449    5.9969  -22.9961 C   0  0  0  0  0  0  0  0  0  0  0  0
   -6.4252    5.2630  -21.7444 N   0  0  0  0  0  0  0  0  0  0  0  0
   -6.7763    3.8543  -22.1215 N   0  0  0  0  0  0  0  0  0  0  0  0
   -6.4416    5.6398  -20.8350 H   0  0  0  0  0  0  0  0  0  0  0  0
  2  1  1  0  0  0
  2  3  1  0  0  0
  3  4  1  0  0  0
  4 19  1  0  0  0
 19 20  2  0  0  0
 20 21  1  0  0  0
 21 22  2  0  0  0
 22 23  1  0  0  0
 23 24  2  0  0  0
 24 25  1  0  0  0
 25 26  2  0  0  0
 26 27  1  0  0  0
 27 28  2  0  0  0
  4  5  1  0  0  0
  5  6  2  0  0  0
  5  7  1  0  0  0
  7  8  1  0  0  0
  8  9  1  0  0  0
  9 29  1  0  0  0
 29 30  1  0  0  0
 30 31  1  0  0  0
 31 32  2  0  0  0
 32 33  1  0  0  0
 33 34  1  0  0  0
  9 10  1  0  0  0
 10 11  2  0  0  0
 10 12  1  0  0  0
 12 13  2  0  0  0
 13 14  1  0  0  0
 14 15  2  0  0  0
 15 16  1  0  0  0
 15 17  1  0  0  0
 17 18  2  0  0  0
  7  2  1  0  0  0
 34 30  2  0  0  0
 18 12  1  0  0  0
 28 19  1  0  0  0
 18  7  1  0  0  0
 28 23  1  0  0  0
 33 35  1  0  0  0
M  END
> <minimizedAffinity>
-8.05151

> <CNNscore>
0.2109938562

> <CNNaffinity>
6.1328215599

> <CNN_VS>
1.2939876318

> <CNNaffinity_variance>
0.2925711274

$$$$



 35 40  0  0  0  0  0  0  0  0999 V2000
   -9.0208   -3.8254  -24.5103 C   0  0  0  0  0  0  0  0  0  0  0  0
   -9.1147   -2.5424  -23.7386 C   0  0  0  0  0  0  0  0  0  0  0  0
  -10.2061   -1.6536  -24.2571 C   0  0  0  0  0  0  0  0  0  0  0  0
  -10.2204   -0.4045  -23.4266 N   0  0  0  0  0  0  0  0  0  0  0  0
   -9.1378   -0.5214  -22.3950 C   0  0  0  0  0  0  0  0  0  0  0  0
   -8.7981    0.5031  -21.3533 O   0  0  0  0  0  0  0  0  0  0  0  0
   -8.4544   -1.8428  -22.5878 C   0  0  0  0  0  0  0  0  0  0  0  0
   -7.8953   -1.0255  -21.4612 C   0  0  0  0  0  0  0  0  0  0  0  0
   -6.7524   -1.5543  -20.6462 N   0  0  0  0  0  0  0  0  0  0  0  0
   -6.1686   -2.9003  -20.9580 C   0  0  0  0  0  0  0  0  0  0  0  0
   -5.0256   -3.4291  -20.1430 O   0  0  0  0  0  0  0  0  0  0  0  0
   -6.7277   -3.7177  -22.0846 C   0  0  0  0  0  0  0  0  0  0  0  0
   -6.1439   -5.0638  -22.3964 C   0  0  0  0  0  0  0  0  0  0  0  0
   -6.7031   -5.8811  -23.5230 C   0  0  0  0  0  0  0  0  0  0  0  0
   -7.8460   -5.3523  -24.3379 C   0  0  0  0  0  0  0  0  0  0  0  0
   -8.4051   -6.1697  -25.4646 F   0  0  0  0  0  0  0  0  0  0  0  0
   -8.4298   -4.0062  -24.0262 C   0  0  0  0  0  0  0  0  0  0  0  0
   -7.8706   -3.1889  -22.8996 C   0  0  0  0  0  0  0  0  0  0  0  0
  -11.1534    0.7575  -23.5977 C   0  0  0  0  0  0  0  0  0  0  0  0
  -12.5889    0.6344  -23.1807 C   0  0  0  0  0  0  0  0  0  0  0  0
  -13.5219    1.7964  -23.3518 N   0  0  0  0  0  0  0  0  0  0  0  0
  -13.0193    3.0815  -23.9400 C   0  0  0  0  0  0  0  0  0  0  0  0
  -11.5837    3.2045  -24.3571 C   0  0  0  0  0  0  0  0  0  0  0  0
  -11.0811    4.4896  -24.9454 C   0  0  0  0  0  0  0  0  0  0  0  0
   -9.6455    4.6126  -25.3624 C   0  0  0  0  0  0  0  0  0  0  0  0
   -8.7126    3.4506  -25.1913 C   0  0  0  0  0  0  0  0  0  0  0  0
   -9.2152    2.1656  -24.6030 C   0  0  0  0  0  0  0  0  0  0  0  0
  -10.6507    2.0425  -24.1860 C   0  0  0  0  0  0  0  0  0  0  0  0
   -6.1932   -0.7369  -19.5196 C   0  0  0  0  0  0  0  0  0  0  0  0
   -4.9864    0.1249  -19.7451 C   0  0  0  0  0  0  0  0  0  0  0  0
   -4.2010    0.2262  -21.0190 C   0  0  0  0  0  0  0  0  0  0  0  0
   -3.0823    1.2006  -20.7976 C   0  0  0  0  0  0  0  0  0  0  0  0
   -3.1764    1.7016  -19.3869 N   0  0  0  0  0  0  0  0  0  0  0  0
   -4.3532    1.0368  -18.7364 N   0  0  0  0  0  0  0  0  0  0  0  0
   -2.5718    2.3525  -18.9624 H   0  0  0  0  0  0  0  0  0  0  0  0
  2  1  1  0  0  0
  2  3  1  0  0  0
  3  4  1  0  0  0
  4 19  1  0  0  0
 19 20  2  0  0  0
 20 21  1  0  0  0
 21 22  2  0  0  0
 22 23  1  0  0  0
 23 24  2  0  0  0
 24 25  1  0  0  0
 25 26  2  0  0  0
 26 27  1  0  0  0
 27 28  2  0  0  0
  4  5  1  0  0  0
  5  6  2  0  0  0
  5  7  1  0  0  0
  7  8  1  0  0  0
  8  9  1  0  0  0
  9 29  1  0  0  0
 29 30  1  0  0  0
 30 31  1  0  0  0
 31 32  2  0  0  0
 32 33  1  0  0  0
 33 34  1  0  0  0
  9 10  1  0  0  0
 10 11  2  0  0  0
 10 12  1  0  0  0
 12 13  2  0  0  0
 13 14  1  0  0  0
 14 15  2  0  0  0
 15 16  1  0  0  0
 15 17  1  0  0  0
 17 18  2  0  0  0
  7  2  1  0  0  0
 34 30  2  0  0  0
 18 12  1  0  0  0
 28 19  1  0  0  0
 18  7  1  0  0  0
 28 23  1  0  0  0
 33 35  1  0  0  0
M  END
> <minimizedAffinity>
-9.38487

> <CNNscore>
0.2086067796

> <CNNaffinity>
6.0066494942

> <CNN_VS>
1.2530277967

> <CNNaffinity_variance>
0.2013047636

$$$$



 35 40  0  0  0  0  0  0  0  0999 V2000
   -7.9077   -3.0776  -25.7587 C   0  0  0  0  0  0  0  0  0  0  0  0
   -7.9342   -2.0351  -24.6805 C   0  0  0  0  0  0  0  0  0  0  0  0
   -8.6125   -0.7760  -25.1329 C   0  0  0  0  0  0  0  0  0  0  0  0
   -8.5886    0.1986  -23.9930 N   0  0  0  0  0  0  0  0  0  0  0  0
   -7.8957   -0.4581  -22.8361 C   0  0  0  0  0  0  0  0  0  0  0  0
   -7.6502    0.1576  -21.4905 O   0  0  0  0  0  0  0  0  0  0  0  0
   -7.4912   -1.8386  -23.2610 C   0  0  0  0  0  0  0  0  0  0  0  0
   -7.1101   -1.4982  -21.8507 C   0  0  0  0  0  0  0  0  0  0  0  0
   -6.3892   -2.5054  -21.0047 N   0  0  0  0  0  0  0  0  0  0  0  0
   -6.0494   -3.8531  -21.5688 C   0  0  0  0  0  0  0  0  0  0  0  0
   -5.3285   -4.8603  -20.7227 O   0  0  0  0  0  0  0  0  0  0  0  0
   -6.4305   -4.1936  -22.9791 C   0  0  0  0  0  0  0  0  0  0  0  0
   -6.0907   -5.5412  -23.5433 C   0  0  0  0  0  0  0  0  0  0  0  0
   -6.4718   -5.8816  -24.9535 C   0  0  0  0  0  0  0  0  0  0  0  0
   -7.1927   -4.8744  -25.7996 C   0  0  0  0  0  0  0  0  0  0  0  0
   -7.5738   -5.2149  -27.2099 F   0  0  0  0  0  0  0  0  0  0  0  0
   -7.5325   -3.5268  -25.2354 C   0  0  0  0  0  0  0  0  0  0  0  0
   -7.1514   -3.1864  -23.8252 C   0  0  0  0  0  0  0  0  0  0  0  0
   -9.1578    1.5864  -24.0074 C   0  0  0  0  0  0  0  0  0  0  0  0
   -8.2532    2.7660  -24.2075 C   0  0  0  0  0  0  0  0  0  0  0  0
   -8.8224    4.1537  -24.2220 N   0  0  0  0  0  0  0  0  0  0  0  0
  -10.2963    4.3617  -24.0362 C   0  0  0  0  0  0  0  0  0  0  0  0
  -11.2009    3.1821  -23.8360 C   0  0  0  0  0  0  0  0  0  0  0  0
  -12.6748    3.3902  -23.6503 C   0  0  0  0  0  0  0  0  0  0  0  0
  -13.5793    2.2105  -23.4501 C   0  0  0  0  0  0  0  0  0  0  0  0
  -13.0101    0.8228  -23.4357 C   0  0  0  0  0  0  0  0  0  0  0  0
  -11.5363    0.6148  -23.6215 C   0  0  0  0  0  0  0  0  0  0  0  0
  -10.6317    1.7943  -23.8216 C   0  0  0  0  0  0  0  0  0  0  0  0
   -6.0081   -2.1649  -19.5943 C   0  0  0  0  0  0  0  0  0  0  0  0
   -5.3105   -0.8706  -19.2976 C   0  0  0  0  0  0  0  0  0  0  0  0
   -4.4895   -0.0698  -20.2643 C   0  0  0  0  0  0  0  0  0  0  0  0
   -3.9830    1.1459  -19.5463 C   0  0  0  0  0  0  0  0  0  0  0  0
   -4.4909    1.0964  -18.1357 N   0  0  0  0  0  0  0  0  0  0  0  0
   -5.3114   -0.1499  -17.9821 N   0  0  0  0  0  0  0  0  0  0  0  0
   -4.3165    1.7645  -17.4340 H   0  0  0  0  0  0  0  0  0  0  0  0
  2  1  1  0  0  0
  2  3  1  0  0  0
  3  4  1  0  0  0
  4 19  1  0  0  0
 19 20  2  0  0  0
 20 21  1  0  0  0
 21 22  2  0  0  0
 22 23  1  0  0  0
 23 24  2  0  0  0
 24 25  1  0  0  0
 25 26  2  0  0  0
 26 27  1  0  0  0
 27 28  2  0  0  0
  4  5  1  0  0  0
  5  6  2  0  0  0
  5  7  1  0  0  0
  7  8  1  0  0  0
  8  9  1  0  0  0
  9 29  1  0  0  0
 29 30  1  0  0  0
 30 31  1  0  0  0
 31 32  2  0  0  0
 32 33  1  0  0  0
 33 34  1  0  0  0
  9 10  1  0  0  0
 10 11  2  0  0  0
 10 12  1  0  0  0
 12 13  2  0  0  0
 13 14  1  0  0  0
 14 15  2  0  0  0
 15 16  1  0  0  0
 15 17  1  0  0  0
 17 18  2  0  0  0
  7  2  1  0  0  0
 34 30  2  0  0  0
 18 12  1  0  0  0
 28 19  1  0  0  0
 18  7  1  0  0  0
 28 23  1  0  0  0
 33 35  1  0  0  0
M  END
> <minimizedAffinity>
-8.99298

> <CNNscore>
0.2083599120

> <CNNaffinity>
6.0942034721

> <CNN_VS>
1.2697876692

> <CNNaffinity_variance>
0.0789746642

$$$$



 35 40  0  0  0  0  0  0  0  0999 V2000
   -7.3929   -5.1290  -23.2310 C   0  0  0  0  0  0  0  0  0  0  0  0
   -7.1345   -3.6568  -23.1036 C   0  0  0  0  0  0  0  0  0  0  0  0
   -6.6584   -3.2867  -21.7301 C   0  0  0  0  0  0  0  0  0  0  0  0
   -6.4292   -1.8046  -21.7028 N   0  0  0  0  0  0  0  0  0  0  0  0
   -6.7636   -1.2588  -23.0593 C   0  0  0  0  0  0  0  0  0  0  0  0
   -6.6772    0.1794  -23.4768 O   0  0  0  0  0  0  0  0  0  0  0  0
   -7.1995   -2.4035  -23.9251 C   0  0  0  0  0  0  0  0  0  0  0  0
   -7.2140   -1.0738  -24.6190 C   0  0  0  0  0  0  0  0  0  0  0  0
   -7.6401   -0.9814  -26.0543 N   0  0  0  0  0  0  0  0  0  0  0  0
   -8.0517   -2.2187  -26.7956 C   0  0  0  0  0  0  0  0  0  0  0  0
   -8.4778   -2.1263  -28.2308 O   0  0  0  0  0  0  0  0  0  0  0  0
   -8.0372   -3.5485  -26.1017 C   0  0  0  0  0  0  0  0  0  0  0  0
   -8.4487   -4.7859  -26.8430 C   0  0  0  0  0  0  0  0  0  0  0  0
   -8.4342   -6.1156  -26.1490 C   0  0  0  0  0  0  0  0  0  0  0  0
   -8.0081   -6.2080  -24.7138 C   0  0  0  0  0  0  0  0  0  0  0  0
   -7.9936   -7.5378  -24.0199 F   0  0  0  0  0  0  0  0  0  0  0  0
   -7.5965   -4.9706  -23.9725 C   0  0  0  0  0  0  0  0  0  0  0  0
   -7.6111   -3.6409  -24.6664 C   0  0  0  0  0  0  0  0  0  0  0  0
   -5.9497   -1.0082  -20.5256 C   0  0  0  0  0  0  0  0  0  0  0  0
   -6.6704   -1.1013  -19.2135 C   0  0  0  0  0  0  0  0  0  0  0  0
   -6.1909   -0.3048  -18.0363 N   0  0  0  0  0  0  0  0  0  0  0  0
   -4.9908    0.5848  -18.1713 C   0  0  0  0  0  0  0  0  0  0  0  0
   -4.2701    0.6779  -19.4836 C   0  0  0  0  0  0  0  0  0  0  0  0
   -3.0698    1.5675  -19.6186 C   0  0  0  0  0  0  0  0  0  0  0  0
   -2.3492    1.6605  -20.9308 C   0  0  0  0  0  0  0  0  0  0  0  0
   -2.8287    0.8641  -22.1079 C   0  0  0  0  0  0  0  0  0  0  0  0
   -4.0288   -0.0255  -21.9729 C   0  0  0  0  0  0  0  0  0  0  0  0
   -4.7495   -0.1186  -20.6607 C   0  0  0  0  0  0  0  0  0  0  0  0
   -7.6547    0.3484  -26.7482 C   0  0  0  0  0  0  0  0  0  0  0  0
   -8.3412    1.5197  -26.1105 C   0  0  0  0  0  0  0  0  0  0  0  0
   -7.9709    2.9624  -26.2878 C   0  0  0  0  0  0  0  0  0  0  0  0
   -8.9194    3.7883  -25.4704 C   0  0  0  0  0  0  0  0  0  0  0  0
   -9.8760    2.8560  -24.7879 N   0  0  0  0  0  0  0  0  0  0  0  0
   -9.5187    1.4540  -25.1835 N   0  0  0  0  0  0  0  0  0  0  0  0
  -10.6096    3.1183  -24.1860 H   0  0  0  0  0  0  0  0  0  0  0  0
  2  1  1  0  0  0
  2  3  1  0  0  0
  3  4  1  0  0  0
  4 19  1  0  0  0
 19 20  2  0  0  0
 20 21  1  0  0  0
 21 22  2  0  0  0
 22 23  1  0  0  0
 23 24  2  0  0  0
 24 25  1  0  0  0
 25 26  2  0  0  0
 26 27  1  0  0  0
 27 28  2  0  0  0
  4  5  1  0  0  0
  5  6  2  0  0  0
  5  7  1  0  0  0
  7  8  1  0  0  0
  8  9  1  0  0  0
  9 29  1  0  0  0
 29 30  1  0  0  0
 30 31  1  0  0  0
 31 32  2  0  0  0
 32 33  1  0  0  0
 33 34  1  0  0  0
  9 10  1  0  0  0
 10 11  2  0  0  0
 10 12  1  0  0  0
 12 13  2  0  0  0
 13 14  1  0  0  0
 14 15  2  0  0  0
 15 16  1  0  0  0
 15 17  1  0  0  0
 17 18  2  0  0  0
  7  2  1  0  0  0
 34 30  2  0  0  0
 18 12  1  0  0  0
 28 19  1  0  0  0
 18  7  1  0  0  0
 28 23  1  0  0  0
 33 35  1  0  0  0
M  END
> <minimizedAffinity>
-8.26982

> <CNNscore>
0.1968542784

> <CNNaffinity>
6.1465659142

> <CNN_VS>
1.2099777460

> <CNNaffinity_variance>
0.0992800742

$$$$
