


 42 47  0  0  0  0  0  0  0  0999 V2000
   -7.1482   -1.0499  -21.6127 N   0  0  0  0  0  0  0  0  0  0  0  0
   -7.1785    0.3177  -22.2281 C   0  0  0  0  0  0  0  0  0  0  0  0
   -8.4188    0.8020  -22.9188 C   0  0  0  0  0  0  0  0  0  0  0  0
   -9.5811    1.4196  -23.6383 C   0  0  0  0  0  0  0  0  0  0  0  0
  -10.7225    1.1562  -23.9609 O   0  0  0  0  0  0  0  0  0  0  0  0
   -9.1728    2.7914  -24.0869 N   0  0  0  0  0  0  0  0  0  0  0  0
   -7.7580    3.0218  -23.6447 C   0  0  0  0  0  0  0  0  0  0  0  0
   -7.2921    1.7923  -22.9228 C   0  0  0  0  0  0  0  0  0  0  0  0
   -9.6288   -0.0813  -22.9941 C   0  0  0  0  0  0  0  0  0  0  0  0
  -10.8691    0.4031  -23.6847 C   0  0  0  0  0  0  0  0  0  0  0  0
  -12.0791   -0.4802  -23.7600 C   0  0  0  0  0  0  0  0  0  0  0  0
  -13.3195    0.0041  -24.4506 Cl  0  0  0  0  0  0  0  0  0  0  0  0
  -12.0488   -1.8478  -23.1445 C   0  0  0  0  0  0  0  0  0  0  0  0
  -10.8085   -2.3322  -22.4539 C   0  0  0  0  0  0  0  0  0  0  0  0
   -9.5985   -1.4489  -22.3787 C   0  0  0  0  0  0  0  0  0  0  0  0
   -8.3581   -1.9332  -21.6880 C   0  0  0  0  0  0  0  0  0  0  0  0
   -8.3278   -3.3008  -21.0726 O   0  0  0  0  0  0  0  0  0  0  0  0
  -10.0288    3.7624  -24.8447 C   0  0  0  0  0  0  0  0  0  0  0  0
   -9.6502    4.1670  -26.2386 C   0  0  0  0  0  0  0  0  0  0  0  0
  -10.5063    5.1380  -26.9964 N   0  0  0  0  0  0  0  0  0  0  0  0
  -11.7410    5.7044  -26.3603 C   0  0  0  0  0  0  0  0  0  0  0  0
  -12.1196    5.2998  -24.9664 C   0  0  0  0  0  0  0  0  0  0  0  0
  -13.3544    5.8663  -24.3303 C   0  0  0  0  0  0  0  0  0  0  0  0
  -13.7329    5.4616  -22.9364 C   0  0  0  0  0  0  0  0  0  0  0  0
  -12.8769    4.4906  -22.1786 C   0  0  0  0  0  0  0  0  0  0  0  0
  -11.6422    3.9242  -22.8147 C   0  0  0  0  0  0  0  0  0  0  0  0
  -11.2635    4.3288  -24.2086 C   0  0  0  0  0  0  0  0  0  0  0  0
   -5.9078   -1.5342  -20.9220 C   0  0  0  0  0  0  0  0  0  0  0  0
   -5.4727   -5.3122  -22.0567 C   0  0  0  0  0  0  0  0  0  0  0  0
   -5.7811   -3.8450  -22.1028 N   0  0  0  0  0  0  0  0  0  0  0  0
   -5.5994   -3.0014  -20.8759 C   0  0  0  0  0  0  0  0  0  0  0  0
   -5.1092   -3.6251  -19.6027 O   0  0  0  0  0  0  0  0  0  0  0  0
   -6.1028   -3.4357  -22.9384 H   0  0  0  0  0  0  0  0  0  0  0  0
   -5.9372    1.5887  -22.3121 C   0  0  0  0  0  0  0  0  0  0  0  0
   -5.2579    2.7205  -21.5998 N   0  0  0  0  0  0  0  0  0  0  0  0
   -5.7239    3.5800  -21.4845 H   0  0  0  0  0  0  0  0  0  0  0  0
   -3.8684    2.5429  -21.0633 C   0  0  0  0  0  0  0  0  0  0  0  0
   -2.6279    3.1984  -21.5939 S   0  0  0  0  0  0  0  0  0  0  0  0
   -1.4684    2.7392  -20.7605 C   0  0  0  0  0  0  0  0  0  0  0  0
   -1.9922    1.8000  -19.7148 N   0  0  0  0  0  0  0  0  0  0  0  0
   -3.4755    1.6787  -19.9020 C   0  0  0  0  0  0  0  0  0  0  0  0
   -4.4031    0.8403  -19.0733 C   0  0  0  0  0  0  0  0  0  0  0  0
 29 30  1  0  0  0
 30 31  1  0  0  0
 31 32  2  0  0  0
 31 28  1  0  0  0
 28  1  1  0  0  0
  1  2  1  0  0  0
  3  2  1  0  0  0
  3  4  1  0  0  0
  4  5  2  0  0  0
  4  6  1  0  0  0
  6 18  1  0  0  0
 18 19  2  0  0  0
 19 20  1  0  0  0
 20 21  2  0  0  0
 21 22  1  0  0  0
 22 23  2  0  0  0
 23 24  1  0  0  0
 24 25  2  0  0  0
 25 26  1  0  0  0
 26 27  2  0  0  0
  6  7  1  0  0  0
  7  8  1  0  0  0
  8 34  1  0  0  0
 34 35  1  0  0  0
 35 37  1  0  0  0
 37 38  1  0  0  0
 38 39  1  0  0  0
 39 40  2  0  0  0
 40 41  1  0  0  0
 41 42  1  0  0  0
  3  9  1  0  0  0
  9 10  2  0  0  0
 10 11  1  0  0  0
 11 12  1  0  0  0
 11 13  2  0  0  0
 13 14  1  0  0  0
 14 15  2  0  0  0
 15 16  1  0  0  0
 16 17  2  0  0  0
 16  1  1  0  0  0
  8  3  1  0  0  0
 41 37  2  0  0  0
 15  9  1  0  0  0
 27 18  1  0  0  0
 27 22  1  0  0  0
 30 33  1  0  0  0
 35 36  1  0  0  0
M  END
> <minimizedAffinity>
-8.00032

> <CNNscore>
0.3756457269

> <CNNaffinity>
6.6879396439

> <CNN_VS>
2.5122959614

> <CNNaffinity_variance>
0.0563870668

$$$$



 42 47  0  0  0  0  0  0  0  0999 V2000
   -9.6154    2.9157  -24.5459 N   0  0  0  0  0  0  0  0  0  0  0  0
   -8.6364    1.7839  -24.6489 C   0  0  0  0  0  0  0  0  0  0  0  0
   -9.0679    0.3863  -24.3164 C   0  0  0  0  0  0  0  0  0  0  0  0
   -9.3529   -1.0558  -24.0183 C   0  0  0  0  0  0  0  0  0  0  0  0
  -10.2677   -1.7680  -23.6543 O   0  0  0  0  0  0  0  0  0  0  0  0
   -8.0932   -1.8355  -24.2532 N   0  0  0  0  0  0  0  0  0  0  0  0
   -7.0296   -0.8752  -24.6965 C   0  0  0  0  0  0  0  0  0  0  0  0
   -7.6320    0.4980  -24.7356 C   0  0  0  0  0  0  0  0  0  0  0  0
  -10.4786    0.1205  -23.8810 C   0  0  0  0  0  0  0  0  0  0  0  0
  -10.9102   -1.2770  -23.5486 C   0  0  0  0  0  0  0  0  0  0  0  0
  -12.3207   -1.5428  -23.1132 C   0  0  0  0  0  0  0  0  0  0  0  0
  -12.7524   -2.9404  -22.7808 Cl  0  0  0  0  0  0  0  0  0  0  0  0
  -13.2997   -0.4110  -23.0103 C   0  0  0  0  0  0  0  0  0  0  0  0
  -12.8682    0.9866  -23.3427 C   0  0  0  0  0  0  0  0  0  0  0  0
  -11.4576    1.2523  -23.7781 C   0  0  0  0  0  0  0  0  0  0  0  0
  -11.0259    2.6499  -24.1105 C   0  0  0  0  0  0  0  0  0  0  0  0
  -12.0049    3.7817  -24.0076 O   0  0  0  0  0  0  0  0  0  0  0  0
   -7.9264   -3.3156  -24.0759 C   0  0  0  0  0  0  0  0  0  0  0  0
   -7.2957   -3.8550  -22.8263 C   0  0  0  0  0  0  0  0  0  0  0  0
   -7.1288   -5.3351  -22.6490 N   0  0  0  0  0  0  0  0  0  0  0  0
   -7.5927   -6.2758  -23.7213 C   0  0  0  0  0  0  0  0  0  0  0  0
   -8.2234   -5.7365  -24.9708 C   0  0  0  0  0  0  0  0  0  0  0  0
   -8.6873   -6.6773  -26.0432 C   0  0  0  0  0  0  0  0  0  0  0  0
   -9.3179   -6.1379  -27.2927 C   0  0  0  0  0  0  0  0  0  0  0  0
   -9.4848   -4.6578  -27.4700 C   0  0  0  0  0  0  0  0  0  0  0  0
   -9.0209   -3.7170  -26.3977 C   0  0  0  0  0  0  0  0  0  0  0  0
   -8.3902   -4.2564  -25.1481 C   0  0  0  0  0  0  0  0  0  0  0  0
   -9.1837    4.3133  -24.8784 C   0  0  0  0  0  0  0  0  0  0  0  0
   -7.0512    5.9136  -21.9388 C   0  0  0  0  0  0  0  0  0  0  0  0
   -8.1919    5.2842  -22.6821 N   0  0  0  0  0  0  0  0  0  0  0  0
   -8.0430    4.9427  -24.1351 C   0  0  0  0  0  0  0  0  0  0  0  0
   -6.7532    5.2307  -24.8448 O   0  0  0  0  0  0  0  0  0  0  0  0
   -9.0384    5.0952  -22.2163 H   0  0  0  0  0  0  0  0  0  0  0  0
   -6.9230    1.7610  -25.1254 C   0  0  0  0  0  0  0  0  0  0  0  0
   -5.4413    1.8816  -24.9259 N   0  0  0  0  0  0  0  0  0  0  0  0
   -4.8481    1.9998  -25.7026 H   0  0  0  0  0  0  0  0  0  0  0  0
   -4.8633    1.8219  -23.5430 C   0  0  0  0  0  0  0  0  0  0  0  0
   -5.4648    2.4268  -22.3092 S   0  0  0  0  0  0  0  0  0  0  0  0
   -4.5556    2.1256  -21.1548 C   0  0  0  0  0  0  0  0  0  0  0  0
   -3.3922    1.3345  -21.6752 N   0  0  0  0  0  0  0  0  0  0  0  0
   -3.5824    1.1468  -23.1512 C   0  0  0  0  0  0  0  0  0  0  0  0
   -2.6546    0.4130  -24.0735 C   0  0  0  0  0  0  0  0  0  0  0  0
 29 30  1  0  0  0
 30 31  1  0  0  0
 31 32  2  0  0  0
 31 28  1  0  0  0
 28  1  1  0  0  0
  1  2  1  0  0  0
  3  2  1  0  0  0
  3  4  1  0  0  0
  4  5  2  0  0  0
  4  6  1  0  0  0
  6 18  1  0  0  0
 18 19  2  0  0  0
 19 20  1  0  0  0
 20 21  2  0  0  0
 21 22  1  0  0  0
 22 23  2  0  0  0
 23 24  1  0  0  0
 24 25  2  0  0  0
 25 26  1  0  0  0
 26 27  2  0  0  0
  6  7  1  0  0  0
  7  8  1  0  0  0
  8 34  1  0  0  0
 34 35  1  0  0  0
 35 37  1  0  0  0
 37 38  1  0  0  0
 38 39  1  0  0  0
 39 40  2  0  0  0
 40 41  1  0  0  0
 41 42  1  0  0  0
  3  9  1  0  0  0
  9 10  2  0  0  0
 10 11  1  0  0  0
 11 12  1  0  0  0
 11 13  2  0  0  0
 13 14  1  0  0  0
 14 15  2  0  0  0
 15 16  1  0  0  0
 16 17  2  0  0  0
 16  1  1  0  0  0
  8  3  1  0  0  0
 41 37  2  0  0  0
 15  9  1  0  0  0
 27 18  1  0  0  0
 27 22  1  0  0  0
 30 33  1  0  0  0
 35 36  1  0  0  0
M  END
> <minimizedAffinity>
-7.45717

> <CNNscore>
0.2737278640

> <CNNaffinity>
6.7897691727

> <CNN_VS>
1.8585489988

> <CNNaffinity_variance>
0.1551180780

$$$$



 42 47  0  0  0  0  0  0  0  0999 V2000
   -7.1091   -1.5550  -21.9856 N   0  0  0  0  0  0  0  0  0  0  0  0
   -7.1423   -0.1186  -22.4162 C   0  0  0  0  0  0  0  0  0  0  0  0
   -8.4143    0.4776  -22.9419 C   0  0  0  0  0  0  0  0  0  0  0  0
   -9.6066    1.2080  -23.4849 C   0  0  0  0  0  0  0  0  0  0  0  0
  -10.7763    1.0130  -23.7502 O   0  0  0  0  0  0  0  0  0  0  0  0
   -9.1902    2.6177  -23.7837 N   0  0  0  0  0  0  0  0  0  0  0  0
   -7.7405    2.7586  -23.4254 C   0  0  0  0  0  0  0  0  0  0  0  0
   -7.2610    1.4360  -22.9051 C   0  0  0  0  0  0  0  0  0  0  0  0
   -9.6533   -0.3626  -23.0369 C   0  0  0  0  0  0  0  0  0  0  0  0
  -10.9253    0.2336  -23.5626 C   0  0  0  0  0  0  0  0  0  0  0  0
  -12.1642   -0.6067  -23.6576 C   0  0  0  0  0  0  0  0  0  0  0  0
  -13.4364   -0.0105  -24.1833 Cl  0  0  0  0  0  0  0  0  0  0  0  0
  -12.1311   -2.0431  -23.2269 C   0  0  0  0  0  0  0  0  0  0  0  0
  -10.8590   -2.6394  -22.7013 C   0  0  0  0  0  0  0  0  0  0  0  0
   -9.6201   -1.7991  -22.6063 C   0  0  0  0  0  0  0  0  0  0  0  0
   -8.3480   -2.3953  -22.0806 C   0  0  0  0  0  0  0  0  0  0  0  0
   -8.3148   -3.8318  -21.6500 O   0  0  0  0  0  0  0  0  0  0  0  0
  -10.0692    3.6970  -24.3428 C   0  0  0  0  0  0  0  0  0  0  0  0
  -10.9168    4.5254  -23.4233 C   0  0  0  0  0  0  0  0  0  0  0  0
  -11.7958    5.6047  -23.9823 N   0  0  0  0  0  0  0  0  0  0  0  0
  -11.8272    5.8556  -25.4608 C   0  0  0  0  0  0  0  0  0  0  0  0
  -10.9796    5.0272  -26.3803 C   0  0  0  0  0  0  0  0  0  0  0  0
  -11.0111    5.2781  -27.8589 C   0  0  0  0  0  0  0  0  0  0  0  0
  -10.1635    4.4497  -28.7783 C   0  0  0  0  0  0  0  0  0  0  0  0
   -9.2845    3.3704  -28.2193 C   0  0  0  0  0  0  0  0  0  0  0  0
   -9.2531    3.1195  -26.7408 C   0  0  0  0  0  0  0  0  0  0  0  0
  -10.1006    3.9479  -25.8213 C   0  0  0  0  0  0  0  0  0  0  0  0
   -5.8369   -2.1512  -21.4599 C   0  0  0  0  0  0  0  0  0  0  0  0
   -5.1002   -0.3818  -17.9848 C   0  0  0  0  0  0  0  0  0  0  0  0
   -5.4836   -0.5797  -19.4214 N   0  0  0  0  0  0  0  0  0  0  0  0
   -5.4535   -1.9533  -20.0233 C   0  0  0  0  0  0  0  0  0  0  0  0
   -5.0398   -3.1290  -19.1886 O   0  0  0  0  0  0  0  0  0  0  0  0
   -5.7551    0.1919  -19.9692 H   0  0  0  0  0  0  0  0  0  0  0  0
   -5.8719    1.1261  -22.4312 C   0  0  0  0  0  0  0  0  0  0  0  0
   -4.8331    2.2075  -22.3949 N   0  0  0  0  0  0  0  0  0  0  0  0
   -5.0276    3.0902  -22.7851 H   0  0  0  0  0  0  0  0  0  0  0  0
   -3.4979    1.9441  -21.7641 C   0  0  0  0  0  0  0  0  0  0  0  0
   -3.0978    2.3044  -20.3641 S   0  0  0  0  0  0  0  0  0  0  0  0
   -1.6810    1.8571  -20.1574 C   0  0  0  0  0  0  0  0  0  0  0  0
   -1.2056    1.2204  -21.4297 N   0  0  0  0  0  0  0  0  0  0  0  0
   -2.3285    1.2742  -22.4227 C   0  0  0  0  0  0  0  0  0  0  0  0
   -2.2890    0.7501  -23.8276 C   0  0  0  0  0  0  0  0  0  0  0  0
 29 30  1  0  0  0
 30 31  1  0  0  0
 31 32  2  0  0  0
 31 28  1  0  0  0
 28  1  1  0  0  0
  1  2  1  0  0  0
  3  2  1  0  0  0
  3  4  1  0  0  0
  4  5  2  0  0  0
  4  6  1  0  0  0
  6 18  1  0  0  0
 18 19  2  0  0  0
 19 20  1  0  0  0
 20 21  2  0  0  0
 21 22  1  0  0  0
 22 23  2  0  0  0
 23 24  1  0  0  0
 24 25  2  0  0  0
 25 26  1  0  0  0
 26 27  2  0  0  0
  6  7  1  0  0  0
  7  8  1  0  0  0
  8 34  1  0  0  0
 34 35  1  0  0  0
 35 37  1  0  0  0
 37 38  1  0  0  0
 38 39  1  0  0  0
 39 40  2  0  0  0
 40 41  1  0  0  0
 41 42  1  0  0  0
  3  9  1  0  0  0
  9 10  2  0  0  0
 10 11  1  0  0  0
 11 12  1  0  0  0
 11 13  2  0  0  0
 13 14  1  0  0  0
 14 15  2  0  0  0
 15 16  1  0  0  0
 16 17  2  0  0  0
 16  1  1  0  0  0
  8  3  1  0  0  0
 41 37  2  0  0  0
 15  9  1  0  0  0
 27 18  1  0  0  0
 27 22  1  0  0  0
 30 33  1  0  0  0
 35 36  1  0  0  0
M  END
> <minimizedAffinity>
-7.60816

> <CNNscore>
0.2690467238

> <CNNaffinity>
6.4413862228

> <CNN_VS>
1.7330338955

> <CNNaffinity_variance>
0.1410590857

$$$$



 42 47  0  0  0  0  0  0  0  0999 V2000
   -6.8091   -0.5770  -22.8961 N   0  0  0  0  0  0  0  0  0  0  0  0
   -7.2199    0.8498  -23.1098 C   0  0  0  0  0  0  0  0  0  0  0  0
   -8.6672    1.1924  -23.3043 C   0  0  0  0  0  0  0  0  0  0  0  0
  -10.0688    1.6848  -23.5117 C   0  0  0  0  0  0  0  0  0  0  0  0
  -11.2045    1.2583  -23.5814 O   0  0  0  0  0  0  0  0  0  0  0  0
  -10.0164    3.1740  -23.6838 N   0  0  0  0  0  0  0  0  0  0  0  0
   -8.5823    3.6020  -23.5826 C   0  0  0  0  0  0  0  0  0  0  0  0
   -7.7485    2.3774  -23.3481 C   0  0  0  0  0  0  0  0  0  0  0  0
   -9.7038    0.1084  -23.2850 C   0  0  0  0  0  0  0  0  0  0  0  0
  -11.1511    0.4510  -23.4794 C   0  0  0  0  0  0  0  0  0  0  0  0
  -12.1876   -0.6330  -23.4601 C   0  0  0  0  0  0  0  0  0  0  0  0
  -13.6350   -0.2904  -23.6546 Cl  0  0  0  0  0  0  0  0  0  0  0  0
  -11.7768   -2.0598  -23.2464 C   0  0  0  0  0  0  0  0  0  0  0  0
  -10.3295   -2.4024  -23.0519 C   0  0  0  0  0  0  0  0  0  0  0  0
   -9.2930   -1.3184  -23.0712 C   0  0  0  0  0  0  0  0  0  0  0  0
   -7.8456   -1.6610  -22.8768 C   0  0  0  0  0  0  0  0  0  0  0  0
   -7.4349   -3.0878  -22.6631 O   0  0  0  0  0  0  0  0  0  0  0  0
  -11.1917    4.0766  -23.9161 C   0  0  0  0  0  0  0  0  0  0  0  0
  -12.0511    4.5010  -22.7623 C   0  0  0  0  0  0  0  0  0  0  0  0
  -13.2264    5.4036  -22.9946 N   0  0  0  0  0  0  0  0  0  0  0  0
  -13.5422    5.8818  -24.3808 C   0  0  0  0  0  0  0  0  0  0  0  0
  -12.6828    5.4575  -25.5346 C   0  0  0  0  0  0  0  0  0  0  0  0
  -12.9987    5.9358  -26.9209 C   0  0  0  0  0  0  0  0  0  0  0  0
  -12.1391    5.5113  -28.0746 C   0  0  0  0  0  0  0  0  0  0  0  0
  -10.9639    4.6087  -27.8423 C   0  0  0  0  0  0  0  0  0  0  0  0
  -10.6481    4.1305  -26.4561 C   0  0  0  0  0  0  0  0  0  0  0  0
  -11.5075    4.5548  -25.3023 C   0  0  0  0  0  0  0  0  0  0  0  0
   -5.3617   -0.9196  -22.7017 C   0  0  0  0  0  0  0  0  0  0  0  0
   -3.6890   -1.6244  -26.2309 C   0  0  0  0  0  0  0  0  0  0  0  0
   -4.6394   -1.6983  -25.0727 N   0  0  0  0  0  0  0  0  0  0  0  0
   -4.4114   -0.8457  -23.8598 C   0  0  0  0  0  0  0  0  0  0  0  0
   -3.2330    0.0809  -23.8051 O   0  0  0  0  0  0  0  0  0  0  0  0
   -5.4127   -2.3065  -25.1086 H   0  0  0  0  0  0  0  0  0  0  0  0
   -6.2577    2.3436  -23.1859 C   0  0  0  0  0  0  0  0  0  0  0  0
   -5.6134    3.0429  -22.0259 N   0  0  0  0  0  0  0  0  0  0  0  0
   -6.0775    3.7886  -21.5812 H   0  0  0  0  0  0  0  0  0  0  0  0
   -4.2620    2.6060  -21.5432 C   0  0  0  0  0  0  0  0  0  0  0  0
   -2.9415    3.1198  -22.0354 S   0  0  0  0  0  0  0  0  0  0  0  0
   -1.8573    2.4100  -21.2800 C   0  0  0  0  0  0  0  0  0  0  0  0
   -2.5077    1.4575  -20.3210 N   0  0  0  0  0  0  0  0  0  0  0  0
   -3.9940    1.5786  -20.4837 C   0  0  0  0  0  0  0  0  0  0  0  0
   -5.0302    0.8078  -19.7208 C   0  0  0  0  0  0  0  0  0  0  0  0
 29 30  1  0  0  0
 30 31  1  0  0  0
 31 32  2  0  0  0
 31 28  1  0  0  0
 28  1  1  0  0  0
  1  2  1  0  0  0
  3  2  1  0  0  0
  3  4  1  0  0  0
  4  5  2  0  0  0
  4  6  1  0  0  0
  6 18  1  0  0  0
 18 19  2  0  0  0
 19 20  1  0  0  0
 20 21  2  0  0  0
 21 22  1  0  0  0
 22 23  2  0  0  0
 23 24  1  0  0  0
 24 25  2  0  0  0
 25 26  1  0  0  0
 26 27  2  0  0  0
  6  7  1  0  0  0
  7  8  1  0  0  0
  8 34  1  0  0  0
 34 35  1  0  0  0
 35 37  1  0  0  0
 37 38  1  0  0  0
 38 39  1  0  0  0
 39 40  2  0  0  0
 40 41  1  0  0  0
 41 42  1  0  0  0
  3  9  1  0  0  0
  9 10  2  0  0  0
 10 11  1  0  0  0
 11 12  1  0  0  0
 11 13  2  0  0  0
 13 14  1  0  0  0
 14 15  2  0  0  0
 15 16  1  0  0  0
 16 17  2  0  0  0
 16  1  1  0  0  0
  8  3  1  0  0  0
 41 37  2  0  0  0
 15  9  1  0  0  0
 27 18  1  0  0  0
 27 22  1  0  0  0
 30 33  1  0  0  0
 35 36  1  0  0  0
M  END
> <minimizedAffinity>
-7.51171

> <CNNscore>
0.2677247822

> <CNNaffinity>
6.5679197311

> <CNN_VS>
1.7583948374

> <CNNaffinity_variance>
0.2253344059

$$$$



 42 47  0  0  0  0  0  0  0  0999 V2000
   -9.5187    2.8566  -24.6137 N   0  0  0  0  0  0  0  0  0  0  0  0
   -8.5530    1.7126  -24.7067 C   0  0  0  0  0  0  0  0  0  0  0  0
   -8.9995    0.3239  -24.3571 C   0  0  0  0  0  0  0  0  0  0  0  0
   -9.3000   -1.1115  -24.0418 C   0  0  0  0  0  0  0  0  0  0  0  0
  -10.2217   -1.8089  -23.6671 O   0  0  0  0  0  0  0  0  0  0  0  0
   -8.0500   -1.9081  -24.2715 N   0  0  0  0  0  0  0  0  0  0  0  0
   -6.9768   -0.9651  -24.7288 C   0  0  0  0  0  0  0  0  0  0  0  0
   -7.5637    0.4143  -24.7817 C   0  0  0  0  0  0  0  0  0  0  0  0
  -10.4117    0.0792  -23.9146 C   0  0  0  0  0  0  0  0  0  0  0  0
  -10.8583   -1.3094  -23.5651 C   0  0  0  0  0  0  0  0  0  0  0  0
  -12.2704   -1.5541  -23.1226 C   0  0  0  0  0  0  0  0  0  0  0  0
  -12.7170   -2.9428  -22.7731 Cl  0  0  0  0  0  0  0  0  0  0  0  0
  -13.2361   -0.4100  -23.0297 C   0  0  0  0  0  0  0  0  0  0  0  0
  -12.7896    0.9786  -23.3793 C   0  0  0  0  0  0  0  0  0  0  0  0
  -11.3774    1.2232  -23.8217 C   0  0  0  0  0  0  0  0  0  0  0  0
  -10.9308    2.6120  -24.1713 C   0  0  0  0  0  0  0  0  0  0  0  0
  -11.8965    3.7560  -24.0783 O   0  0  0  0  0  0  0  0  0  0  0  0
   -7.8996   -3.3879  -24.0779 C   0  0  0  0  0  0  0  0  0  0  0  0
   -7.2813   -3.9207  -22.8193 C   0  0  0  0  0  0  0  0  0  0  0  0
   -7.1308   -5.4005  -22.6257 N   0  0  0  0  0  0  0  0  0  0  0  0
   -7.5987   -6.3476  -23.6907 C   0  0  0  0  0  0  0  0  0  0  0  0
   -8.2170   -5.8148  -24.9492 C   0  0  0  0  0  0  0  0  0  0  0  0
   -8.6848   -6.7620  -26.0142 C   0  0  0  0  0  0  0  0  0  0  0  0
   -9.3031   -6.2292  -27.2727 C   0  0  0  0  0  0  0  0  0  0  0  0
   -9.4535   -4.7493  -27.4663 C   0  0  0  0  0  0  0  0  0  0  0  0
   -8.9857   -3.8023  -26.4014 C   0  0  0  0  0  0  0  0  0  0  0  0
   -8.3674   -4.3350  -25.1428 C   0  0  0  0  0  0  0  0  0  0  0  0
   -9.0721    4.2453  -24.9633 C   0  0  0  0  0  0  0  0  0  0  0  0
   -7.0264    5.7711  -21.9240 C   0  0  0  0  0  0  0  0  0  0  0  0
   -8.1275    5.1183  -22.7059 N   0  0  0  0  0  0  0  0  0  0  0  0
   -7.9710    4.8981  -24.1814 C   0  0  0  0  0  0  0  0  0  0  0  0
   -6.7132    5.3308  -24.8750 O   0  0  0  0  0  0  0  0  0  0  0  0
   -8.9529    4.8343  -22.2507 H   0  0  0  0  0  0  0  0  0  0  0  0
   -6.8414    1.6647  -25.1879 C   0  0  0  0  0  0  0  0  0  0  0  0
   -5.3418    1.6963  -25.1940 N   0  0  0  0  0  0  0  0  0  0  0  0
   -4.8387    1.0729  -25.7663 H   0  0  0  0  0  0  0  0  0  0  0  0
   -4.6087    2.6775  -24.3282 C   0  0  0  0  0  0  0  0  0  0  0  0
   -3.5416    3.6288  -24.7824 S   0  0  0  0  0  0  0  0  0  0  0  0
   -3.0874    4.4189  -23.5910 C   0  0  0  0  0  0  0  0  0  0  0  0
   -3.8738    3.9561  -22.4005 N   0  0  0  0  0  0  0  0  0  0  0  0
   -4.8141    2.8798  -22.8561 C   0  0  0  0  0  0  0  0  0  0  0  0
   -5.7886    2.1363  -21.9915 C   0  0  0  0  0  0  0  0  0  0  0  0
 29 30  1  0  0  0
 30 31  1  0  0  0
 31 32  2  0  0  0
 31 28  1  0  0  0
 28  1  1  0  0  0
  1  2  1  0  0  0
  3  2  1  0  0  0
  3  4  1  0  0  0
  4  5  2  0  0  0
  4  6  1  0  0  0
  6 18  1  0  0  0
 18 19  2  0  0  0
 19 20  1  0  0  0
 20 21  2  0  0  0
 21 22  1  0  0  0
 22 23  2  0  0  0
 23 24  1  0  0  0
 24 25  2  0  0  0
 25 26  1  0  0  0
 26 27  2  0  0  0
  6  7  1  0  0  0
  7  8  1  0  0  0
  8 34  1  0  0  0
 34 35  1  0  0  0
 35 37  1  0  0  0
 37 38  1  0  0  0
 38 39  1  0  0  0
 39 40  2  0  0  0
 40 41  1  0  0  0
 41 42  1  0  0  0
  3  9  1  0  0  0
  9 10  2  0  0  0
 10 11  1  0  0  0
 11 12  1  0  0  0
 11 13  2  0  0  0
 13 14  1  0  0  0
 14 15  2  0  0  0
 15 16  1  0  0  0
 16 17  2  0  0  0
 16  1  1  0  0  0
  8  3  1  0  0  0
 41 37  2  0  0  0
 15  9  1  0  0  0
 27 18  1  0  0  0
 27 22  1  0  0  0
 30 33  1  0  0  0
 35 36  1  0  0  0
M  END
> <minimizedAffinity>
-7.23698

> <CNNscore>
0.2532200217

> <CNNaffinity>
6.7809209824

> <CNN_VS>
1.7170649767

> <CNNaffinity_variance>
0.1444698274

$$$$



 42 47  0  0  0  0  0  0  0  0999 V2000
   -5.7602   -4.0487  -21.6127 N   0  0  0  0  0  0  0  0  0  0  0  0
   -6.0677   -3.5094  -22.9782 C   0  0  0  0  0  0  0  0  0  0  0  0
   -5.9974   -2.0332  -23.2349 C   0  0  0  0  0  0  0  0  0  0  0  0
   -5.9689   -0.5891  -23.6395 C   0  0  0  0  0  0  0  0  0  0  0  0
   -5.7425    0.5062  -23.1649 O   0  0  0  0  0  0  0  0  0  0  0  0
   -6.3413   -0.5067  -25.0902 N   0  0  0  0  0  0  0  0  0  0  0  0
   -6.6001   -1.8999  -25.5822 C   0  0  0  0  0  0  0  0  0  0  0  0
   -6.3875   -2.8433  -24.4355 C   0  0  0  0  0  0  0  0  0  0  0  0
   -5.6196   -1.0963  -22.1260 C   0  0  0  0  0  0  0  0  0  0  0  0
   -5.5493    0.3799  -22.3827 C   0  0  0  0  0  0  0  0  0  0  0  0
   -5.1715    1.3168  -21.2740 C   0  0  0  0  0  0  0  0  0  0  0  0
   -5.1012    2.7930  -21.5306 Cl  0  0  0  0  0  0  0  0  0  0  0  0
   -4.8640    0.7775  -19.9085 C   0  0  0  0  0  0  0  0  0  0  0  0
   -4.9342   -0.6987  -19.6518 C   0  0  0  0  0  0  0  0  0  0  0  0
   -5.3121   -1.6356  -20.7606 C   0  0  0  0  0  0  0  0  0  0  0  0
   -5.3824   -3.1118  -20.5039 C   0  0  0  0  0  0  0  0  0  0  0  0
   -5.0748   -3.6511  -19.1384 O   0  0  0  0  0  0  0  0  0  0  0  0
   -6.4381    0.7485  -25.9057 C   0  0  0  0  0  0  0  0  0  0  0  0
   -5.3316    1.1172  -26.8490 C   0  0  0  0  0  0  0  0  0  0  0  0
   -5.4283    2.3724  -27.6646 N   0  0  0  0  0  0  0  0  0  0  0  0
   -6.6315    3.2589  -27.5367 C   0  0  0  0  0  0  0  0  0  0  0  0
   -7.7380    2.8903  -26.5934 C   0  0  0  0  0  0  0  0  0  0  0  0
   -8.9412    3.7769  -26.4656 C   0  0  0  0  0  0  0  0  0  0  0  0
  -10.0476    3.4081  -25.5222 C   0  0  0  0  0  0  0  0  0  0  0  0
   -9.9509    2.1529  -24.7067 C   0  0  0  0  0  0  0  0  0  0  0  0
   -8.7477    1.2664  -24.8345 C   0  0  0  0  0  0  0  0  0  0  0  0
   -7.6413    1.6350  -25.7779 C   0  0  0  0  0  0  0  0  0  0  0  0
   -5.8305   -5.5250  -21.3560 C   0  0  0  0  0  0  0  0  0  0  0  0
   -3.5892   -7.4093  -24.0349 C   0  0  0  0  0  0  0  0  0  0  0  0
   -4.0122   -6.4418  -22.9694 N   0  0  0  0  0  0  0  0  0  0  0  0
   -5.4075   -6.4924  -22.4215 C   0  0  0  0  0  0  0  0  0  0  0  0
   -6.3801   -7.5105  -22.9390 O   0  0  0  0  0  0  0  0  0  0  0  0
   -3.3739   -5.7736  -22.6297 H   0  0  0  0  0  0  0  0  0  0  0  0
   -6.5385   -4.3350  -24.4815 C   0  0  0  0  0  0  0  0  0  0  0  0
   -7.9040   -4.9529  -24.4208 N   0  0  0  0  0  0  0  0  0  0  0  0
   -7.9995   -5.9311  -24.3649 H   0  0  0  0  0  0  0  0  0  0  0  0
   -9.1238   -4.0803  -24.4453 C   0  0  0  0  0  0  0  0  0  0  0  0
   -9.7861   -3.4570  -23.2525 S   0  0  0  0  0  0  0  0  0  0  0  0
  -10.9672   -2.6694  -23.7370 C   0  0  0  0  0  0  0  0  0  0  0  0
  -11.0349   -2.8060  -25.2292 N   0  0  0  0  0  0  0  0  0  0  0  0
   -9.8956   -3.6780  -25.6670 C   0  0  0  0  0  0  0  0  0  0  0  0
   -9.5830   -4.0776  -27.0786 C   0  0  0  0  0  0  0  0  0  0  0  0
 29 30  1  0  0  0
 30 31  1  0  0  0
 31 32  2  0  0  0
 31 28  1  0  0  0
 28  1  1  0  0  0
  1  2  1  0  0  0
  3  2  1  0  0  0
  3  4  1  0  0  0
  4  5  2  0  0  0
  4  6  1  0  0  0
  6 18  1  0  0  0
 18 19  2  0  0  0
 19 20  1  0  0  0
 20 21  2  0  0  0
 21 22  1  0  0  0
 22 23  2  0  0  0
 23 24  1  0  0  0
 24 25  2  0  0  0
 25 26  1  0  0  0
 26 27  2  0  0  0
  6  7  1  0  0  0
  7  8  1  0  0  0
  8 34  1  0  0  0
 34 35  1  0  0  0
 35 37  1  0  0  0
 37 38  1  0  0  0
 38 39  1  0  0  0
 39 40  2  0  0  0
 40 41  1  0  0  0
 41 42  1  0  0  0
  3  9  1  0  0  0
  9 10  2  0  0  0
 10 11  1  0  0  0
 11 12  1  0  0  0
 11 13  2  0  0  0
 13 14  1  0  0  0
 14 15  2  0  0  0
 15 16  1  0  0  0
 16 17  2  0  0  0
 16  1  1  0  0  0
  8  3  1  0  0  0
 41 37  2  0  0  0
 15  9  1  0  0  0
 27 18  1  0  0  0
 27 22  1  0  0  0
 30 33  1  0  0  0
 35 36  1  0  0  0
M  END
> <minimizedAffinity>
-7.39672

> <CNNscore>
0.2199854553

> <CNNaffinity>
6.4700026512

> <CNN_VS>
1.4233064651

> <CNNaffinity_variance>
0.1368813515

$$$$



 42 47  0  0  0  0  0  0  0  0999 V2000
   -9.3021    2.7493  -24.3967 N   0  0  0  0  0  0  0  0  0  0  0  0
   -8.3748    1.5765  -24.5178 C   0  0  0  0  0  0  0  0  0  0  0  0
   -8.8759    0.1916  -24.2334 C   0  0  0  0  0  0  0  0  0  0  0  0
   -9.2322   -1.2437  -23.9823 C   0  0  0  0  0  0  0  0  0  0  0  0
  -10.1848   -1.9225  -23.6536 O   0  0  0  0  0  0  0  0  0  0  0  0
   -8.0060   -2.0742  -24.2205 N   0  0  0  0  0  0  0  0  0  0  0  0
   -6.8919   -1.1522  -24.6187 C   0  0  0  0  0  0  0  0  0  0  0  0
   -7.4295    0.2482  -24.6267 C   0  0  0  0  0  0  0  0  0  0  0  0
  -10.3045   -0.0205  -23.8279 C   0  0  0  0  0  0  0  0  0  0  0  0
  -10.8057   -1.4054  -23.5435 C   0  0  0  0  0  0  0  0  0  0  0  0
  -12.2342   -1.6174  -23.1381 C   0  0  0  0  0  0  0  0  0  0  0  0
  -12.7354   -3.0023  -22.8537 Cl  0  0  0  0  0  0  0  0  0  0  0  0
  -13.1615   -0.4446  -23.0171 C   0  0  0  0  0  0  0  0  0  0  0  0
  -12.6603    0.9402  -23.3015 C   0  0  0  0  0  0  0  0  0  0  0  0
  -11.2318    1.1523  -23.7069 C   0  0  0  0  0  0  0  0  0  0  0  0
  -10.7305    2.5372  -23.9913 C   0  0  0  0  0  0  0  0  0  0  0  0
  -11.6578    3.7100  -23.8703 O   0  0  0  0  0  0  0  0  0  0  0  0
   -7.9107   -3.5649  -24.0843 C   0  0  0  0  0  0  0  0  0  0  0  0
   -7.3261   -4.1687  -22.8418 C   0  0  0  0  0  0  0  0  0  0  0  0
   -7.2308   -5.6595  -22.7056 N   0  0  0  0  0  0  0  0  0  0  0  0
   -7.7201   -6.5464  -23.8119 C   0  0  0  0  0  0  0  0  0  0  0  0
   -8.3046   -5.9426  -25.0544 C   0  0  0  0  0  0  0  0  0  0  0  0
   -8.7939   -6.8297  -26.1607 C   0  0  0  0  0  0  0  0  0  0  0  0
   -9.3785   -6.2258  -27.4031 C   0  0  0  0  0  0  0  0  0  0  0  0
   -9.4738   -4.7350  -27.5393 C   0  0  0  0  0  0  0  0  0  0  0  0
   -8.9845   -3.8481  -26.4330 C   0  0  0  0  0  0  0  0  0  0  0  0
   -8.3999   -4.4519  -25.1906 C   0  0  0  0  0  0  0  0  0  0  0  0
   -8.8008    4.1342  -24.6811 C   0  0  0  0  0  0  0  0  0  0  0  0
  -11.0942    5.4809  -27.6267 C   0  0  0  0  0  0  0  0  0  0  0  0
  -10.2844    4.5509  -26.7729 N   0  0  0  0  0  0  0  0  0  0  0  0
   -9.6107    5.0643  -25.5350 C   0  0  0  0  0  0  0  0  0  0  0  0
   -9.7469    6.5079  -25.1508 O   0  0  0  0  0  0  0  0  0  0  0  0
  -10.1950    3.6034  -27.0250 H   0  0  0  0  0  0  0  0  0  0  0  0
   -6.6565    1.4874  -24.9681 C   0  0  0  0  0  0  0  0  0  0  0  0
   -5.2141    1.6042  -24.5735 N   0  0  0  0  0  0  0  0  0  0  0  0
   -4.5286    1.7758  -25.2589 H   0  0  0  0  0  0  0  0  0  0  0  0
   -4.8161    1.4597  -23.1345 C   0  0  0  0  0  0  0  0  0  0  0  0
   -3.9364    0.3856  -22.5666 S   0  0  0  0  0  0  0  0  0  0  0  0
   -3.8046    0.6260  -21.0919 C   0  0  0  0  0  0  0  0  0  0  0  0
   -4.6028    1.8487  -20.7483 N   0  0  0  0  0  0  0  0  0  0  0  0
   -5.2279    2.3639  -22.0107 C   0  0  0  0  0  0  0  0  0  0  0  0
   -6.1100    3.5714  -22.1287 C   0  0  0  0  0  0  0  0  0  0  0  0
 29 30  1  0  0  0
 30 31  1  0  0  0
 31 32  2  0  0  0
 31 28  1  0  0  0
 28  1  1  0  0  0
  1  2  1  0  0  0
  3  2  1  0  0  0
  3  4  1  0  0  0
  4  5  2  0  0  0
  4  6  1  0  0  0
  6 18  1  0  0  0
 18 19  2  0  0  0
 19 20  1  0  0  0
 20 21  2  0  0  0
 21 22  1  0  0  0
 22 23  2  0  0  0
 23 24  1  0  0  0
 24 25  2  0  0  0
 25 26  1  0  0  0
 26 27  2  0  0  0
  6  7  1  0  0  0
  7  8  1  0  0  0
  8 34  1  0  0  0
 34 35  1  0  0  0
 35 37  1  0  0  0
 37 38  1  0  0  0
 38 39  1  0  0  0
 39 40  2  0  0  0
 40 41  1  0  0  0
 41 42  1  0  0  0
  3  9  1  0  0  0
  9 10  2  0  0  0
 10 11  1  0  0  0
 11 12  1  0  0  0
 11 13  2  0  0  0
 13 14  1  0  0  0
 14 15  2  0  0  0
 15 16  1  0  0  0
 16 17  2  0  0  0
 16  1  1  0  0  0
  8  3  1  0  0  0
 41 37  2  0  0  0
 15  9  1  0  0  0
 27 18  1  0  0  0
 27 22  1  0  0  0
 30 33  1  0  0  0
 35 36  1  0  0  0
M  END
> <minimizedAffinity>
-7.52307

> <CNNscore>
0.1978960037

> <CNNaffinity>
6.7025237083

> <CNN_VS>
1.3264026642

> <CNNaffinity_variance>
0.1195679456

$$$$



 42 47  0  0  0  0  0  0  0  0999 V2000
  -11.5442    3.9502  -24.1016 N   0  0  0  0  0  0  0  0  0  0  0  0
  -10.1634    3.3726  -24.0024 C   0  0  0  0  0  0  0  0  0  0  0  0
   -9.9805    1.9094  -23.7275 C   0  0  0  0  0  0  0  0  0  0  0  0
   -9.6429    0.4729  -23.4586 C   0  0  0  0  0  0  0  0  0  0  0  0
  -10.1943   -0.5903  -23.2539 O   0  0  0  0  0  0  0  0  0  0  0  0
   -8.1486    0.3426  -23.4448 N   0  0  0  0  0  0  0  0  0  0  0  0
   -7.5626    1.6986  -23.7051 C   0  0  0  0  0  0  0  0  0  0  0  0
   -8.6948    2.6670  -23.8798 C   0  0  0  0  0  0  0  0  0  0  0  0
  -11.1783    1.0238  -23.5516 C   0  0  0  0  0  0  0  0  0  0  0  0
  -10.9953   -0.4394  -23.2766 C   0  0  0  0  0  0  0  0  0  0  0  0
  -12.1932   -1.3249  -23.1008 C   0  0  0  0  0  0  0  0  0  0  0  0
  -12.0102   -2.7882  -22.8258 Cl  0  0  0  0  0  0  0  0  0  0  0  0
  -13.5739   -0.7473  -23.1999 C   0  0  0  0  0  0  0  0  0  0  0  0
  -13.7569    0.7158  -23.4749 C   0  0  0  0  0  0  0  0  0  0  0  0
  -12.5591    1.6014  -23.6507 C   0  0  0  0  0  0  0  0  0  0  0  0
  -12.7420    3.0646  -23.9257 C   0  0  0  0  0  0  0  0  0  0  0  0
  -14.1228    3.6422  -24.0248 O   0  0  0  0  0  0  0  0  0  0  0  0
   -7.3759   -0.9218  -23.2116 C   0  0  0  0  0  0  0  0  0  0  0  0
   -7.1278   -1.8694  -24.3475 C   0  0  0  0  0  0  0  0  0  0  0  0
   -6.3551   -3.1338  -24.1143 N   0  0  0  0  0  0  0  0  0  0  0  0
   -5.8307   -3.4505  -22.7452 C   0  0  0  0  0  0  0  0  0  0  0  0
   -6.0788   -2.5029  -21.6092 C   0  0  0  0  0  0  0  0  0  0  0  0
   -5.5543   -2.8196  -20.2400 C   0  0  0  0  0  0  0  0  0  0  0  0
   -5.8026   -1.8719  -19.1041 C   0  0  0  0  0  0  0  0  0  0  0  0
   -6.5752   -0.6076  -19.3373 C   0  0  0  0  0  0  0  0  0  0  0  0
   -7.0997   -0.2908  -20.7065 C   0  0  0  0  0  0  0  0  0  0  0  0
   -6.8515   -1.2385  -21.8424 C   0  0  0  0  0  0  0  0  0  0  0  0
  -11.7271    5.4134  -24.3765 C   0  0  0  0  0  0  0  0  0  0  0  0
  -14.0137    6.4167  -27.4612 C   0  0  0  0  0  0  0  0  0  0  0  0
  -13.5982    5.9565  -26.0953 N   0  0  0  0  0  0  0  0  0  0  0  0
  -12.1427    5.8736  -25.7424 C   0  0  0  0  0  0  0  0  0  0  0  0
  -11.1026    6.2510  -26.7553 O   0  0  0  0  0  0  0  0  0  0  0  0
  -14.2808    5.7088  -25.4305 H   0  0  0  0  0  0  0  0  0  0  0  0
   -8.5642    4.1352  -24.1580 C   0  0  0  0  0  0  0  0  0  0  0  0
   -7.3211    4.6680  -24.8064 N   0  0  0  0  0  0  0  0  0  0  0  0
   -6.4977    4.7760  -24.2777 H   0  0  0  0  0  0  0  0  0  0  0  0
   -7.3324    5.0364  -26.2604 C   0  0  0  0  0  0  0  0  0  0  0  0
   -7.4816    6.4208  -26.8181 S   0  0  0  0  0  0  0  0  0  0  0  0
   -7.4379    6.3250  -28.3144 C   0  0  0  0  0  0  0  0  0  0  0  0
   -7.2617    4.8813  -28.6815 N   0  0  0  0  0  0  0  0  0  0  0  0
   -7.1964    4.0849  -27.4120 C   0  0  0  0  0  0  0  0  0  0  0  0
   -7.0253    2.5981  -27.3118 C   0  0  0  0  0  0  0  0  0  0  0  0
 29 30  1  0  0  0
 30 31  1  0  0  0
 31 32  2  0  0  0
 31 28  1  0  0  0
 28  1  1  0  0  0
  1  2  1  0  0  0
  3  2  1  0  0  0
  3  4  1  0  0  0
  4  5  2  0  0  0
  4  6  1  0  0  0
  6 18  1  0  0  0
 18 19  2  0  0  0
 19 20  1  0  0  0
 20 21  2  0  0  0
 21 22  1  0  0  0
 22 23  2  0  0  0
 23 24  1  0  0  0
 24 25  2  0  0  0
 25 26  1  0  0  0
 26 27  2  0  0  0
  6  7  1  0  0  0
  7  8  1  0  0  0
  8 34  1  0  0  0
 34 35  1  0  0  0
 35 37  1  0  0  0
 37 38  1  0  0  0
 38 39  1  0  0  0
 39 40  2  0  0  0
 40 41  1  0  0  0
 41 42  1  0  0  0
  3  9  1  0  0  0
  9 10  2  0  0  0
 10 11  1  0  0  0
 11 12  1  0  0  0
 11 13  2  0  0  0
 13 14  1  0  0  0
 14 15  2  0  0  0
 15 16  1  0  0  0
 16 17  2  0  0  0
 16  1  1  0  0  0
  8  3  1  0  0  0
 41 37  2  0  0  0
 15  9  1  0  0  0
 27 18  1  0  0  0
 27 22  1  0  0  0
 30 33  1  0  0  0
 35 36  1  0  0  0
M  END
> <minimizedAffinity>
-7.38503

> <CNNscore>
0.1638205498

> <CNNaffinity>
6.5013480186

> <CNN_VS>
1.0650544167

> <CNNaffinity_variance>
0.2953580320

$$$$



 42 47  0  0  0  0  0  0  0  0999 V2000
   -7.0206   -3.3071  -24.4249 N   0  0  0  0  0  0  0  0  0  0  0  0
   -6.7179   -1.8400  -24.5015 C   0  0  0  0  0  0  0  0  0  0  0  0
   -7.8147   -0.8364  -24.3021 C   0  0  0  0  0  0  0  0  0  0  0  0
   -8.8028    0.2782  -24.1250 C   0  0  0  0  0  0  0  0  0  0  0  0
   -9.9845    0.4473  -23.8988 O   0  0  0  0  0  0  0  0  0  0  0  0
   -8.0694    1.5772  -24.2826 N   0  0  0  0  0  0  0  0  0  0  0  0
   -6.6281    1.2654  -24.5572 C   0  0  0  0  0  0  0  0  0  0  0  0
   -6.4707   -0.2262  -24.5692 C   0  0  0  0  0  0  0  0  0  0  0  0
   -9.2143   -1.2999  -24.0260 C   0  0  0  0  0  0  0  0  0  0  0  0
  -10.3112   -0.2964  -23.8265 C   0  0  0  0  0  0  0  0  0  0  0  0
  -11.7107   -0.7600  -23.5504 C   0  0  0  0  0  0  0  0  0  0  0  0
  -12.8076    0.2436  -23.3509 Cl  0  0  0  0  0  0  0  0  0  0  0  0
  -12.0135   -2.2271  -23.4738 C   0  0  0  0  0  0  0  0  0  0  0  0
  -10.9167   -3.2306  -23.6733 C   0  0  0  0  0  0  0  0  0  0  0  0
   -9.5171   -2.7671  -23.9494 C   0  0  0  0  0  0  0  0  0  0  0  0
   -8.4202   -3.7707  -24.1489 C   0  0  0  0  0  0  0  0  0  0  0  0
   -8.7230   -5.2378  -24.0723 O   0  0  0  0  0  0  0  0  0  0  0  0
   -8.6717    2.9474  -24.1832 C   0  0  0  0  0  0  0  0  0  0  0  0
  -10.0437    3.2052  -24.7319 C   0  0  0  0  0  0  0  0  0  0  0  0
  -10.6460    4.5754  -24.6325 N   0  0  0  0  0  0  0  0  0  0  0  0
   -9.8763    5.6877  -23.9844 C   0  0  0  0  0  0  0  0  0  0  0  0
   -8.5042    5.4299  -23.4357 C   0  0  0  0  0  0  0  0  0  0  0  0
   -7.7345    6.5423  -22.7875 C   0  0  0  0  0  0  0  0  0  0  0  0
   -6.3624    6.2844  -22.2388 C   0  0  0  0  0  0  0  0  0  0  0  0
   -5.7602    4.9142  -22.3382 C   0  0  0  0  0  0  0  0  0  0  0  0
   -6.5299    3.8019  -22.9863 C   0  0  0  0  0  0  0  0  0  0  0  0
   -7.9020    4.0597  -23.5351 C   0  0  0  0  0  0  0  0  0  0  0  0
   -5.9237   -4.3107  -24.6244 C   0  0  0  0  0  0  0  0  0  0  0  0
   -5.8210   -6.6449  -21.4165 C   0  0  0  0  0  0  0  0  0  0  0  0
   -5.8770   -5.4148  -22.2731 N   0  0  0  0  0  0  0  0  0  0  0  0
   -5.8677   -5.5407  -23.7678 C   0  0  0  0  0  0  0  0  0  0  0  0
   -5.8024   -6.8967  -24.4059 O   0  0  0  0  0  0  0  0  0  0  0  0
   -5.9199   -4.5248  -21.8544 H   0  0  0  0  0  0  0  0  0  0  0  0
   -5.1935   -0.9761  -24.8067 C   0  0  0  0  0  0  0  0  0  0  0  0
   -3.9637   -0.6309  -24.0203 N   0  0  0  0  0  0  0  0  0  0  0  0
   -3.0735   -0.8588  -24.3735 H   0  0  0  0  0  0  0  0  0  0  0  0
   -4.0903    0.0616  -22.6957 C   0  0  0  0  0  0  0  0  0  0  0  0
   -3.6024    1.4428  -22.3728 S   0  0  0  0  0  0  0  0  0  0  0  0
   -3.9375    1.7293  -20.9391 C   0  0  0  0  0  0  0  0  0  0  0  0
   -4.6325    0.5252  -20.3759 N   0  0  0  0  0  0  0  0  0  0  0  0
   -4.7269   -0.5055  -21.4616 C   0  0  0  0  0  0  0  0  0  0  0  0
   -5.3487   -1.8647  -21.3354 C   0  0  0  0  0  0  0  0  0  0  0  0
 29 30  1  0  0  0
 30 31  1  0  0  0
 31 32  2  0  0  0
 31 28  1  0  0  0
 28  1  1  0  0  0
  1  2  1  0  0  0
  3  2  1  0  0  0
  3  4  1  0  0  0
  4  5  2  0  0  0
  4  6  1  0  0  0
  6 18  1  0  0  0
 18 19  2  0  0  0
 19 20  1  0  0  0
 20 21  2  0  0  0
 21 22  1  0  0  0
 22 23  2  0  0  0
 23 24  1  0  0  0
 24 25  2  0  0  0
 25 26  1  0  0  0
 26 27  2  0  0  0
  6  7  1  0  0  0
  7  8  1  0  0  0
  8 34  1  0  0  0
 34 35  1  0  0  0
 35 37  1  0  0  0
 37 38  1  0  0  0
 38 39  1  0  0  0
 39 40  2  0  0  0
 40 41  1  0  0  0
 41 42  1  0  0  0
  3  9  1  0  0  0
  9 10  2  0  0  0
 10 11  1  0  0  0
 11 12  1  0  0  0
 11 13  2  0  0  0
 13 14  1  0  0  0
 14 15  2  0  0  0
 15 16  1  0  0  0
 16 17  2  0  0  0
 16  1  1  0  0  0
  8  3  1  0  0  0
 41 37  2  0  0  0
 15  9  1  0  0  0
 27 18  1  0  0  0
 27 22  1  0  0  0
 30 33  1  0  0  0
 35 36  1  0  0  0
M  END
> <minimizedAffinity>
-7.10351

> <CNNscore>
0.1608696580

> <CNNaffinity>
6.2934966087

> <CNN_VS>
1.0124326944

> <CNNaffinity_variance>
0.3180405200

$$$$
