


 42 47  0  0  0  0  0  0  0  0999 V2000
    9.9782    0.4568   22.6832 N   0  0  0  0  0  0  0  0  0  0  0  0
    8.8148   -0.4808   22.5518 C   0  0  0  0  0  0  0  0  0  0  0  0
    8.7768   -1.7463   23.3563 C   0  0  0  0  0  0  0  0  0  0  0  0
    8.6008   -3.0416   24.0920 C   0  0  0  0  0  0  0  0  0  0  0  0
    9.1739   -3.7319   24.9113 O   0  0  0  0  0  0  0  0  0  0  0  0
    7.3003   -3.6490   23.6566 N   0  0  0  0  0  0  0  0  0  0  0  0
    6.6724   -2.7292   22.6518 C   0  0  0  0  0  0  0  0  0  0  0  0
    7.5849   -1.5532   22.4662 C   0  0  0  0  0  0  0  0  0  0  0  0
    9.9023   -2.0741   24.2922 C   0  0  0  0  0  0  0  0  0  0  0  0
    9.8643   -3.3395   25.0967 C   0  0  0  0  0  0  0  0  0  0  0  0
   10.9898   -3.6673   26.0325 C   0  0  0  0  0  0  0  0  0  0  0  0
   10.9518   -4.9328   26.8370 Cl  0  0  0  0  0  0  0  0  0  0  0  0
   12.1532   -2.7297   26.1638 C   0  0  0  0  0  0  0  0  0  0  0  0
   12.1912   -1.4643   25.3594 C   0  0  0  0  0  0  0  0  0  0  0  0
   11.0657   -1.1365   24.4235 C   0  0  0  0  0  0  0  0  0  0  0  0
   11.1037    0.1290   23.6190 C   0  0  0  0  0  0  0  0  0  0  0  0
   12.2671    1.0666   23.7503 O   0  0  0  0  0  0  0  0  0  0  0  0
    6.7281   -4.9483   24.1410 C   0  0  0  0  0  0  0  0  0  0  0  0
    7.2640   -6.2465   23.6143 C   0  0  0  0  0  0  0  0  0  0  0  0
    6.6919   -7.5458   24.0987 N   0  0  0  0  0  0  0  0  0  0  0  0
    5.5838   -7.5467   25.1097 C   0  0  0  0  0  0  0  0  0  0  0  0
    5.0479   -6.2484   25.6363 C   0  0  0  0  0  0  0  0  0  0  0  0
    3.9397   -6.2494   26.6474 C   0  0  0  0  0  0  0  0  0  0  0  0
    3.4039   -4.9511   27.1739 C   0  0  0  0  0  0  0  0  0  0  0  0
    3.9761   -3.6519   26.6896 C   0  0  0  0  0  0  0  0  0  0  0  0
    5.0841   -3.6509   25.6786 C   0  0  0  0  0  0  0  0  0  0  0  0
    5.6201   -4.9492   25.1520 C   0  0  0  0  0  0  0  0  0  0  0  0
   10.0162    1.7222   21.8786 C   0  0  0  0  0  0  0  0  0  0  0  0
   10.5859    5.4866   22.9989 C   0  0  0  0  0  0  0  0  0  0  0  0
   10.7888    4.1624   22.3241 N   0  0  0  0  0  0  0  0  0  0  0  0
    9.8132    3.0464   22.5535 C   0  0  0  0  0  0  0  0  0  0  0  0
    8.6347    3.2545   23.4579 O   0  0  0  0  0  0  0  0  0  0  0  0
   11.5623    4.0259   21.7305 H   0  0  0  0  0  0  0  0  0  0  0  0
    7.3473   -0.3886   21.5512 C   0  0  0  0  0  0  0  0  0  0  0  0
    5.9677    0.1817   21.4059 N   0  0  0  0  0  0  0  0  0  0  0  0
    5.4069    0.3229   22.2027 H   0  0  0  0  0  0  0  0  0  0  0  0
    5.4423    0.5371   20.0466 C   0  0  0  0  0  0  0  0  0  0  0  0
    6.0368    0.1189   18.7345 S   0  0  0  0  0  0  0  0  0  0  0  0
    5.1920    0.6964   17.6378 C   0  0  0  0  0  0  0  0  0  0  0  0
    4.0754    1.4716   18.2720 N   0  0  0  0  0  0  0  0  0  0  0  0
    4.2301    1.3731   19.7608 C   0  0  0  0  0  0  0  0  0  0  0  0
    3.3305    2.0005   20.7841 C   0  0  0  0  0  0  0  0  0  0  0  0
 29 30  1  0  0  0
 30 31  1  0  0  0
 31 32  2  0  0  0
 31 28  1  0  0  0
 28  1  1  0  0  0
  1  2  1  0  0  0
  3  2  1  0  0  0
  3  4  1  0  0  0
  4  5  2  0  0  0
  4  6  1  0  0  0
  6 18  1  0  0  0
 18 19  2  0  0  0
 19 20  1  0  0  0
 20 21  2  0  0  0
 21 22  1  0  0  0
 22 23  2  0  0  0
 23 24  1  0  0  0
 24 25  2  0  0  0
 25 26  1  0  0  0
 26 27  2  0  0  0
  6  7  1  0  0  0
  7  8  1  0  0  0
  8 34  1  0  0  0
 34 35  1  0  0  0
 35 37  1  0  0  0
 37 38  1  0  0  0
 38 39  1  0  0  0
 39 40  2  0  0  0
 40 41  1  0  0  0
 41 42  1  0  0  0
  3  9  1  0  0  0
  9 10  2  0  0  0
 10 11  1  0  0  0
 11 12  1  0  0  0
 11 13  2  0  0  0
 13 14  1  0  0  0
 14 15  2  0  0  0
 15 16  1  0  0  0
 16 17  2  0  0  0
 16  1  1  0  0  0
  8  3  1  0  0  0
 41 37  2  0  0  0
 15  9  1  0  0  0
 27 18  1  0  0  0
 27 22  1  0  0  0
 30 33  1  0  0  0
 35 36  1  0  0  0
M  END
> <minimizedAffinity>
-9.25570

> <CNNscore>
0.2935880721

> <CNNaffinity>
7.0915474892

> <CNN_VS>
2.0819938183

> <CNNaffinity_variance>
0.1973294467

$$$$



 42 47  0  0  0  0  0  0  0  0999 V2000
    8.6036    1.4326   23.5501 N   0  0  0  0  0  0  0  0  0  0  0  0
    8.3945    0.0882   24.1817 C   0  0  0  0  0  0  0  0  0  0  0  0
    7.4027   -0.0709   25.2958 C   0  0  0  0  0  0  0  0  0  0  0  0
    6.4510   -0.3818   26.4127 C   0  0  0  0  0  0  0  0  0  0  0  0
    5.6351    0.1728   27.1219 O   0  0  0  0  0  0  0  0  0  0  0  0
    6.5687   -1.8435   26.7287 N   0  0  0  0  0  0  0  0  0  0  0  0
    7.5931   -2.4359   25.8069 C   0  0  0  0  0  0  0  0  0  0  0  0
    8.1086   -1.3404   24.9214 C   0  0  0  0  0  0  0  0  0  0  0  0
    6.6201    1.1144   25.7782 C   0  0  0  0  0  0  0  0  0  0  0  0
    5.6284    0.9552   26.8923 C   0  0  0  0  0  0  0  0  0  0  0  0
    4.8458    2.1405   27.3747 C   0  0  0  0  0  0  0  0  0  0  0  0
    3.8540    1.9814   28.4888 Cl  0  0  0  0  0  0  0  0  0  0  0  0
    5.0550    3.4848   26.7430 C   0  0  0  0  0  0  0  0  0  0  0  0
    6.0467    3.6440   25.6290 C   0  0  0  0  0  0  0  0  0  0  0  0
    6.8293    2.4587   25.1466 C   0  0  0  0  0  0  0  0  0  0  0  0
    7.8210    2.6178   24.0325 C   0  0  0  0  0  0  0  0  0  0  0  0
    8.0302    3.9621   23.4009 O   0  0  0  0  0  0  0  0  0  0  0  0
    5.7973   -2.5828   27.7814 C   0  0  0  0  0  0  0  0  0  0  0  0
    5.9804   -2.2344   29.2289 C   0  0  0  0  0  0  0  0  0  0  0  0
    5.2091   -2.9737   30.2817 N   0  0  0  0  0  0  0  0  0  0  0  0
    4.2546   -4.0615   29.8870 C   0  0  0  0  0  0  0  0  0  0  0  0
    4.0715   -4.4099   28.4396 C   0  0  0  0  0  0  0  0  0  0  0  0
    3.1170   -5.4977   28.0449 C   0  0  0  0  0  0  0  0  0  0  0  0
    2.9340   -5.8461   26.5974 C   0  0  0  0  0  0  0  0  0  0  0  0
    3.7053   -5.1067   25.5446 C   0  0  0  0  0  0  0  0  0  0  0  0
    4.6598   -4.0190   25.9393 C   0  0  0  0  0  0  0  0  0  0  0  0
    4.8429   -3.6706   27.3868 C   0  0  0  0  0  0  0  0  0  0  0  0
    9.5954    1.5916   22.4360 C   0  0  0  0  0  0  0  0  0  0  0  0
   12.1953    4.5862   22.2843 C   0  0  0  0  0  0  0  0  0  0  0  0
   10.9498    3.7783   22.0699 N   0  0  0  0  0  0  0  0  0  0  0  0
   10.8409    2.3995   22.6504 C   0  0  0  0  0  0  0  0  0  0  0  0
   11.9777    1.8285   23.4453 O   0  0  0  0  0  0  0  0  0  0  0  0
   10.2037    4.1531   21.5482 H   0  0  0  0  0  0  0  0  0  0  0  0
    9.1475   -1.4885   23.8496 C   0  0  0  0  0  0  0  0  0  0  0  0
   10.1189   -2.6303   23.8992 N   0  0  0  0  0  0  0  0  0  0  0  0
    9.9486   -3.4446   23.3728 H   0  0  0  0  0  0  0  0  0  0  0  0
   11.3497   -2.5315   24.7509 C   0  0  0  0  0  0  0  0  0  0  0  0
   12.5170   -1.6205   24.5111 S   0  0  0  0  0  0  0  0  0  0  0  0
   13.5180   -1.8524   25.6039 C   0  0  0  0  0  0  0  0  0  0  0  0
   12.9693   -2.9066   26.5191 N   0  0  0  0  0  0  0  0  0  0  0  0
   11.6292   -3.3263   25.9919 C   0  0  0  0  0  0  0  0  0  0  0  0
   10.7269   -4.3594   26.5991 C   0  0  0  0  0  0  0  0  0  0  0  0
 29 30  1  0  0  0
 30 31  1  0  0  0
 31 32  2  0  0  0
 31 28  1  0  0  0
 28  1  1  0  0  0
  1  2  1  0  0  0
  3  2  1  0  0  0
  3  4  1  0  0  0
  4  5  2  0  0  0
  4  6  1  0  0  0
  6 18  1  0  0  0
 18 19  2  0  0  0
 19 20  1  0  0  0
 20 21  2  0  0  0
 21 22  1  0  0  0
 22 23  2  0  0  0
 23 24  1  0  0  0
 24 25  2  0  0  0
 25 26  1  0  0  0
 26 27  2  0  0  0
  6  7  1  0  0  0
  7  8  1  0  0  0
  8 34  1  0  0  0
 34 35  1  0  0  0
 35 37  1  0  0  0
 37 38  1  0  0  0
 38 39  1  0  0  0
 39 40  2  0  0  0
 40 41  1  0  0  0
 41 42  1  0  0  0
  3  9  1  0  0  0
  9 10  2  0  0  0
 10 11  1  0  0  0
 11 12  1  0  0  0
 11 13  2  0  0  0
 13 14  1  0  0  0
 14 15  2  0  0  0
 15 16  1  0  0  0
 16 17  2  0  0  0
 16  1  1  0  0  0
  8  3  1  0  0  0
 41 37  2  0  0  0
 15  9  1  0  0  0
 27 18  1  0  0  0
 27 22  1  0  0  0
 30 33  1  0  0  0
 35 36  1  0  0  0
M  END
> <minimizedAffinity>
-7.37160

> <CNNscore>
0.2526997924

> <CNNaffinity>
6.6521592140

> <CNN_VS>
1.6809992790

> <CNNaffinity_variance>
0.3908953071

$$$$



 42 47  0  0  0  0  0  0  0  0999 V2000
    9.6610    1.2018   23.1296 N   0  0  0  0  0  0  0  0  0  0  0  0
    8.3227    0.5811   23.4006 C   0  0  0  0  0  0  0  0  0  0  0  0
    8.2241   -0.6422   24.2630 C   0  0  0  0  0  0  0  0  0  0  0  0
    7.9704   -1.8599   25.1013 C   0  0  0  0  0  0  0  0  0  0  0  0
    8.5784   -2.6767   25.7643 O   0  0  0  0  0  0  0  0  0  0  0  0
    6.4940   -2.1246   25.0996 N   0  0  0  0  0  0  0  0  0  0  0  0
    5.8351   -1.0704   24.2602 C   0  0  0  0  0  0  0  0  0  0  0  0
    6.9044   -0.1543   23.7431 C   0  0  0  0  0  0  0  0  0  0  0  0
    9.4639   -1.2448   24.8545 C   0  0  0  0  0  0  0  0  0  0  0  0
    9.3653   -2.4681   25.7169 C   0  0  0  0  0  0  0  0  0  0  0  0
   10.6051   -3.0706   26.3083 C   0  0  0  0  0  0  0  0  0  0  0  0
   10.5065   -4.2940   27.1708 Cl  0  0  0  0  0  0  0  0  0  0  0  0
   11.9435   -2.4498   26.0374 C   0  0  0  0  0  0  0  0  0  0  0  0
   12.0421   -1.2266   25.1750 C   0  0  0  0  0  0  0  0  0  0  0  0
   10.8023   -0.6240   24.5835 C   0  0  0  0  0  0  0  0  0  0  0  0
   10.9008    0.5993   23.7211 C   0  0  0  0  0  0  0  0  0  0  0  0
   12.2392    1.2201   23.4501 O   0  0  0  0  0  0  0  0  0  0  0  0
    5.7985   -3.2464   25.8122 C   0  0  0  0  0  0  0  0  0  0  0  0
    5.4211   -4.4906   25.0641 C   0  0  0  0  0  0  0  0  0  0  0  0
    4.7257   -5.6124   25.7767 N   0  0  0  0  0  0  0  0  0  0  0  0
    4.4076   -5.4901   27.2374 C   0  0  0  0  0  0  0  0  0  0  0  0
    4.7850   -4.2460   27.9856 C   0  0  0  0  0  0  0  0  0  0  0  0
    4.4669   -4.1237   29.4464 C   0  0  0  0  0  0  0  0  0  0  0  0
    4.8443   -2.8795   30.1945 C   0  0  0  0  0  0  0  0  0  0  0  0
    5.5397   -1.7577   29.4819 C   0  0  0  0  0  0  0  0  0  0  0  0
    5.8578   -1.8800   28.0211 C   0  0  0  0  0  0  0  0  0  0  0  0
    5.4804   -3.1241   27.2730 C   0  0  0  0  0  0  0  0  0  0  0  0
    9.7596    2.4252   22.2671 C   0  0  0  0  0  0  0  0  0  0  0  0
   10.2298    6.2191   23.3325 C   0  0  0  0  0  0  0  0  0  0  0  0
   10.5089    4.8657   22.7491 N   0  0  0  0  0  0  0  0  0  0  0  0
    9.4804    3.7786   22.8506 C   0  0  0  0  0  0  0  0  0  0  0  0
    8.1727    4.0449   23.5355 O   0  0  0  0  0  0  0  0  0  0  0  0
   11.3672    4.6909   22.2996 H   0  0  0  0  0  0  0  0  0  0  0  0
    6.6913    1.0401   22.8611 C   0  0  0  0  0  0  0  0  0  0  0  0
    5.5587    1.0539   21.8778 N   0  0  0  0  0  0  0  0  0  0  0  0
    4.6625    1.3446   22.1633 H   0  0  0  0  0  0  0  0  0  0  0  0
    5.7914    0.6247   20.4595 C   0  0  0  0  0  0  0  0  0  0  0  0
    6.9547   -0.1809   19.9617 S   0  0  0  0  0  0  0  0  0  0  0  0
    6.7839   -0.3777   18.4845 C   0  0  0  0  0  0  0  0  0  0  0  0
    5.5152    0.3063   18.0693 N   0  0  0  0  0  0  0  0  0  0  0  0
    4.9017    0.9258   19.2900 C   0  0  0  0  0  0  0  0  0  0  0  0
    3.6232    1.7090   19.3334 C   0  0  0  0  0  0  0  0  0  0  0  0
 29 30  1  0  0  0
 30 31  1  0  0  0
 31 32  2  0  0  0
 31 28  1  0  0  0
 28  1  1  0  0  0
  1  2  1  0  0  0
  3  2  1  0  0  0
  3  4  1  0  0  0
  4  5  2  0  0  0
  4  6  1  0  0  0
  6 18  1  0  0  0
 18 19  2  0  0  0
 19 20  1  0  0  0
 20 21  2  0  0  0
 21 22  1  0  0  0
 22 23  2  0  0  0
 23 24  1  0  0  0
 24 25  2  0  0  0
 25 26  1  0  0  0
 26 27  2  0  0  0
  6  7  1  0  0  0
  7  8  1  0  0  0
  8 34  1  0  0  0
 34 35  1  0  0  0
 35 37  1  0  0  0
 37 38  1  0  0  0
 38 39  1  0  0  0
 39 40  2  0  0  0
 40 41  1  0  0  0
 41 42  1  0  0  0
  3  9  1  0  0  0
  9 10  2  0  0  0
 10 11  1  0  0  0
 11 12  1  0  0  0
 11 13  2  0  0  0
 13 14  1  0  0  0
 14 15  2  0  0  0
 15 16  1  0  0  0
 16 17  2  0  0  0
 16  1  1  0  0  0
  8  3  1  0  0  0
 41 37  2  0  0  0
 15  9  1  0  0  0
 27 18  1  0  0  0
 27 22  1  0  0  0
 30 33  1  0  0  0
 35 36  1  0  0  0
M  END
> <minimizedAffinity>
-8.52067

> <CNNscore>
0.2288725376

> <CNNaffinity>
6.8210058212

> <CNN_VS>
1.5611408949

> <CNNaffinity_variance>
0.1794447899

$$$$



 42 47  0  0  0  0  0  0  0  0999 V2000
   10.2558    0.5885   23.6492 N   0  0  0  0  0  0  0  0  0  0  0  0
    8.8759    0.1357   24.0244 C   0  0  0  0  0  0  0  0  0  0  0  0
    8.6945   -1.0545   24.9192 C   0  0  0  0  0  0  0  0  0  0  0  0
    8.3584   -2.2209   25.8003 C   0  0  0  0  0  0  0  0  0  0  0  0
    8.9108   -3.0947   26.4389 O   0  0  0  0  0  0  0  0  0  0  0  0
    6.8646   -2.3077   25.9049 N   0  0  0  0  0  0  0  0  0  0  0  0
    6.2773   -1.1948   25.0884 C   0  0  0  0  0  0  0  0  0  0  0  0
    7.4083   -0.4203   24.4792 C   0  0  0  0  0  0  0  0  0  0  0  0
    9.8930   -1.7919   25.4387 C   0  0  0  0  0  0  0  0  0  0  0  0
    9.7116   -2.9820   26.3334 C   0  0  0  0  0  0  0  0  0  0  0  0
   10.9100   -3.7194   26.8529 C   0  0  0  0  0  0  0  0  0  0  0  0
   10.7287   -4.9096   27.7476 Cl  0  0  0  0  0  0  0  0  0  0  0  0
   12.2899   -3.2666   26.4776 C   0  0  0  0  0  0  0  0  0  0  0  0
   12.4714   -2.0764   25.5829 C   0  0  0  0  0  0  0  0  0  0  0  0
   11.2729   -1.3391   25.0634 C   0  0  0  0  0  0  0  0  0  0  0  0
   11.4543   -0.1489   24.1687 C   0  0  0  0  0  0  0  0  0  0  0  0
   12.8342    0.3039   23.7934 O   0  0  0  0  0  0  0  0  0  0  0  0
    6.0934   -3.3282   26.6884 C   0  0  0  0  0  0  0  0  0  0  0  0
    6.0356   -3.2382   28.1846 C   0  0  0  0  0  0  0  0  0  0  0  0
    5.2644   -4.2587   28.9681 N   0  0  0  0  0  0  0  0  0  0  0  0
    4.5510   -5.3691   28.2554 C   0  0  0  0  0  0  0  0  0  0  0  0
    4.6088   -5.4591   26.7592 C   0  0  0  0  0  0  0  0  0  0  0  0
    3.8953   -6.5696   26.0465 C   0  0  0  0  0  0  0  0  0  0  0  0
    3.9531   -6.6595   24.5503 C   0  0  0  0  0  0  0  0  0  0  0  0
    4.7243   -5.6390   23.7668 C   0  0  0  0  0  0  0  0  0  0  0  0
    5.4377   -4.5286   24.4795 C   0  0  0  0  0  0  0  0  0  0  0  0
    5.3800   -4.4386   25.9757 C   0  0  0  0  0  0  0  0  0  0  0  0
   10.4372    1.7787   22.7544 C   0  0  0  0  0  0  0  0  0  0  0  0
    7.8661    4.7817   23.1032 C   0  0  0  0  0  0  0  0  0  0  0  0
    9.0226    3.8668   23.3779 N   0  0  0  0  0  0  0  0  0  0  0  0
    9.2807    2.6936   22.4796 C   0  0  0  0  0  0  0  0  0  0  0  0
    8.3823    2.4352   21.3065 O   0  0  0  0  0  0  0  0  0  0  0  0
    9.6122    4.0363   24.1479 H   0  0  0  0  0  0  0  0  0  0  0  0
    7.2762    0.7780   23.5867 C   0  0  0  0  0  0  0  0  0  0  0  0
    5.9174    1.3181   23.2523 N   0  0  0  0  0  0  0  0  0  0  0  0
    5.6752    1.4954   22.3147 H   0  0  0  0  0  0  0  0  0  0  0  0
    4.9275    1.5881   24.3465 C   0  0  0  0  0  0  0  0  0  0  0  0
    3.4900    1.1599   24.3603 S   0  0  0  0  0  0  0  0  0  0  0  0
    2.8754    1.6409   25.6413 C   0  0  0  0  0  0  0  0  0  0  0  0
    3.9331    2.3663   26.4192 N   0  0  0  0  0  0  0  0  0  0  0  0
    5.2014    2.3336   25.6190 C   0  0  0  0  0  0  0  0  0  0  0  0
    6.5132    2.9400   26.0206 C   0  0  0  0  0  0  0  0  0  0  0  0
 29 30  1  0  0  0
 30 31  1  0  0  0
 31 32  2  0  0  0
 31 28  1  0  0  0
 28  1  1  0  0  0
  1  2  1  0  0  0
  3  2  1  0  0  0
  3  4  1  0  0  0
  4  5  2  0  0  0
  4  6  1  0  0  0
  6 18  1  0  0  0
 18 19  2  0  0  0
 19 20  1  0  0  0
 20 21  2  0  0  0
 21 22  1  0  0  0
 22 23  2  0  0  0
 23 24  1  0  0  0
 24 25  2  0  0  0
 25 26  1  0  0  0
 26 27  2  0  0  0
  6  7  1  0  0  0
  7  8  1  0  0  0
  8 34  1  0  0  0
 34 35  1  0  0  0
 35 37  1  0  0  0
 37 38  1  0  0  0
 38 39  1  0  0  0
 39 40  2  0  0  0
 40 41  1  0  0  0
 41 42  1  0  0  0
  3  9  1  0  0  0
  9 10  2  0  0  0
 10 11  1  0  0  0
 11 12  1  0  0  0
 11 13  2  0  0  0
 13 14  1  0  0  0
 14 15  2  0  0  0
 15 16  1  0  0  0
 16 17  2  0  0  0
 16  1  1  0  0  0
  8  3  1  0  0  0
 41 37  2  0  0  0
 15  9  1  0  0  0
 27 18  1  0  0  0
 27 22  1  0  0  0
 30 33  1  0  0  0
 35 36  1  0  0  0
M  END
> <minimizedAffinity>
-7.52231

> <CNNscore>
0.2285205126

> <CNNaffinity>
6.8077163696

> <CNN_VS>
1.5557028055

> <CNNaffinity_variance>
0.5081243515

$$$$



 42 47  0  0  0  0  0  0  0  0999 V2000
    5.1908    4.2702   23.7407 N   0  0  0  0  0  0  0  0  0  0  0  0
    5.8777    2.9612   23.4864 C   0  0  0  0  0  0  0  0  0  0  0  0
    6.3464    2.1238   24.6392 C   0  0  0  0  0  0  0  0  0  0  0  0
    6.8671    1.1835   25.6854 C   0  0  0  0  0  0  0  0  0  0  0  0
    6.9452    1.0867   26.8941 O   0  0  0  0  0  0  0  0  0  0  0  0
    7.4757    0.0038   24.9869 N   0  0  0  0  0  0  0  0  0  0  0  0
    7.3311    0.2150   23.5089 C   0  0  0  0  0  0  0  0  0  0  0  0
    6.6331    1.5252   23.2940 C   0  0  0  0  0  0  0  0  0  0  0  0
    6.1282    2.5954   26.0464 C   0  0  0  0  0  0  0  0  0  0  0  0
    6.5969    1.7580   27.1992 C   0  0  0  0  0  0  0  0  0  0  0  0
    6.3787    2.2296   28.6063 C   0  0  0  0  0  0  0  0  0  0  0  0
    6.8474    1.3922   29.7592 Cl  0  0  0  0  0  0  0  0  0  0  0  0
    5.6918    3.5386   28.8605 C   0  0  0  0  0  0  0  0  0  0  0  0
    5.2231    4.3760   27.7077 C   0  0  0  0  0  0  0  0  0  0  0  0
    5.4413    3.9044   26.3007 C   0  0  0  0  0  0  0  0  0  0  0  0
    4.9726    4.7419   25.1477 C   0  0  0  0  0  0  0  0  0  0  0  0
    4.2858    6.0509   25.4020 O   0  0  0  0  0  0  0  0  0  0  0  0
    8.1164   -1.1794   25.6500 C   0  0  0  0  0  0  0  0  0  0  0  0
    7.2756   -2.1537   26.4205 C   0  0  0  0  0  0  0  0  0  0  0  0
    7.9163   -3.3369   27.0836 N   0  0  0  0  0  0  0  0  0  0  0  0
    9.3978   -3.5457   26.9761 C   0  0  0  0  0  0  0  0  0  0  0  0
   10.2385   -2.5713   26.2055 C   0  0  0  0  0  0  0  0  0  0  0  0
   11.7201   -2.7802   26.0980 C   0  0  0  0  0  0  0  0  0  0  0  0
   12.5608   -1.8058   25.3274 C   0  0  0  0  0  0  0  0  0  0  0  0
   11.9201   -0.6227   24.6644 C   0  0  0  0  0  0  0  0  0  0  0  0
   10.4387   -0.4138   24.7719 C   0  0  0  0  0  0  0  0  0  0  0  0
    9.5979   -1.3882   25.5425 C   0  0  0  0  0  0  0  0  0  0  0  0
    4.7221    5.1077   22.5878 C   0  0  0  0  0  0  0  0  0  0  0  0
    1.4240    5.5605   20.4273 C   0  0  0  0  0  0  0  0  0  0  0  0
    2.7418    5.8543   21.0809 N   0  0  0  0  0  0  0  0  0  0  0  0
    3.4044    4.8138   21.9342 C   0  0  0  0  0  0  0  0  0  0  0  0
    2.7492    3.4793   22.1340 O   0  0  0  0  0  0  0  0  0  0  0  0
    3.1718    6.7302   20.9498 H   0  0  0  0  0  0  0  0  0  0  0  0
    6.2833    2.1306   21.9669 C   0  0  0  0  0  0  0  0  0  0  0  0
    5.0745    1.6515   21.2193 N   0  0  0  0  0  0  0  0  0  0  0  0
    4.1999    1.6142   21.6697 H   0  0  0  0  0  0  0  0  0  0  0  0
    5.1981    1.2292   19.7853 C   0  0  0  0  0  0  0  0  0  0  0  0
    4.2703    1.6116   18.6704 S   0  0  0  0  0  0  0  0  0  0  0  0
    4.7700    0.9690   17.4105 C   0  0  0  0  0  0  0  0  0  0  0  0
    6.0067    0.1895   17.7467 N   0  0  0  0  0  0  0  0  0  0  0  0
    6.2713    0.3503   19.2144 C   0  0  0  0  0  0  0  0  0  0  0  0
    7.4092   -0.2605   19.9773 C   0  0  0  0  0  0  0  0  0  0  0  0
 29 30  1  0  0  0
 30 31  1  0  0  0
 31 32  2  0  0  0
 31 28  1  0  0  0
 28  1  1  0  0  0
  1  2  1  0  0  0
  3  2  1  0  0  0
  3  4  1  0  0  0
  4  5  2  0  0  0
  4  6  1  0  0  0
  6 18  1  0  0  0
 18 19  2  0  0  0
 19 20  1  0  0  0
 20 21  2  0  0  0
 21 22  1  0  0  0
 22 23  2  0  0  0
 23 24  1  0  0  0
 24 25  2  0  0  0
 25 26  1  0  0  0
 26 27  2  0  0  0
  6  7  1  0  0  0
  7  8  1  0  0  0
  8 34  1  0  0  0
 34 35  1  0  0  0
 35 37  1  0  0  0
 37 38  1  0  0  0
 38 39  1  0  0  0
 39 40  2  0  0  0
 40 41  1  0  0  0
 41 42  1  0  0  0
  3  9  1  0  0  0
  9 10  2  0  0  0
 10 11  1  0  0  0
 11 12  1  0  0  0
 11 13  2  0  0  0
 13 14  1  0  0  0
 14 15  2  0  0  0
 15 16  1  0  0  0
 16 17  2  0  0  0
 16  1  1  0  0  0
  8  3  1  0  0  0
 41 37  2  0  0  0
 15  9  1  0  0  0
 27 18  1  0  0  0
 27 22  1  0  0  0
 30 33  1  0  0  0
 35 36  1  0  0  0
M  END
> <minimizedAffinity>
-7.23452

> <CNNscore>
0.2069013119

> <CNNaffinity>
6.4746794701

> <CNN_VS>
1.3396196365

> <CNNaffinity_variance>
0.1152094379

$$$$



 42 47  0  0  0  0  0  0  0  0999 V2000
    5.1126    1.2248   21.6444 N   0  0  0  0  0  0  0  0  0  0  0  0
    6.0049    0.0450   21.8931 C   0  0  0  0  0  0  0  0  0  0  0  0
    7.4242    0.2569   22.3299 C   0  0  0  0  0  0  0  0  0  0  0  0
    8.8577    0.3124   22.7680 C   0  0  0  0  0  0  0  0  0  0  0  0
    9.7153    1.1272   23.0455 O   0  0  0  0  0  0  0  0  0  0  0  0
    9.3591   -1.0957   22.8931 N   0  0  0  0  0  0  0  0  0  0  0  0
    8.2354   -2.0216   22.5323 C   0  0  0  0  0  0  0  0  0  0  0  0
    7.0396   -1.1856   22.1843 C   0  0  0  0  0  0  0  0  0  0  0  0
    7.9512    1.6487   22.5180 C   0  0  0  0  0  0  0  0  0  0  0  0
    9.3704    1.8606   22.9549 C   0  0  0  0  0  0  0  0  0  0  0  0
    9.8973    3.2523   23.1429 C   0  0  0  0  0  0  0  0  0  0  0  0
   11.3166    3.4643   23.5798 Cl  0  0  0  0  0  0  0  0  0  0  0  0
    9.0050    4.4321   22.8942 C   0  0  0  0  0  0  0  0  0  0  0  0
    7.5858    4.2202   22.4573 C   0  0  0  0  0  0  0  0  0  0  0  0
    7.0589    2.8285   22.2693 C   0  0  0  0  0  0  0  0  0  0  0  0
    5.6396    2.6165   21.8324 C   0  0  0  0  0  0  0  0  0  0  0  0
    4.7473    3.7963   21.5837 O   0  0  0  0  0  0  0  0  0  0  0  0
   10.7414   -1.5060   23.3065 C   0  0  0  0  0  0  0  0  0  0  0  0
   11.9160   -1.1662   22.4375 C   0  0  0  0  0  0  0  0  0  0  0  0
   13.2983   -1.5764   22.8508 N   0  0  0  0  0  0  0  0  0  0  0  0
   13.5061   -2.3264   24.1331 C   0  0  0  0  0  0  0  0  0  0  0  0
   12.3316   -2.6662   25.0021 C   0  0  0  0  0  0  0  0  0  0  0  0
   12.5394   -3.4163   26.2844 C   0  0  0  0  0  0  0  0  0  0  0  0
   11.3649   -3.7560   27.1533 C   0  0  0  0  0  0  0  0  0  0  0  0
    9.9825   -3.3458   26.7400 C   0  0  0  0  0  0  0  0  0  0  0  0
    9.7747   -2.5958   25.4577 C   0  0  0  0  0  0  0  0  0  0  0  0
   10.9492   -2.2560   24.5887 C   0  0  0  0  0  0  0  0  0  0  0  0
    3.6934    1.0128   21.2075 C   0  0  0  0  0  0  0  0  0  0  0  0
    1.4843    3.8585   19.5425 C   0  0  0  0  0  0  0  0  0  0  0  0
    2.0924    2.9598   20.5782 N   0  0  0  0  0  0  0  0  0  0  0  0
    3.0853    1.9114   20.1718 C   0  0  0  0  0  0  0  0  0  0  0  0
    3.4701    1.7617   18.7297 O   0  0  0  0  0  0  0  0  0  0  0  0
    1.8399    3.0581   21.5246 H   0  0  0  0  0  0  0  0  0  0  0  0
    5.6952   -1.7017   21.7643 C   0  0  0  0  0  0  0  0  0  0  0  0
    5.4421   -3.1791   21.7110 N   0  0  0  0  0  0  0  0  0  0  0  0
    5.1396   -3.5968   20.8724 H   0  0  0  0  0  0  0  0  0  0  0  0
    5.6498   -4.0203   22.9354 C   0  0  0  0  0  0  0  0  0  0  0  0
    5.4566   -3.5746   24.3546 S   0  0  0  0  0  0  0  0  0  0  0  0
    5.7746   -4.7338   25.2518 C   0  0  0  0  0  0  0  0  0  0  0  0
    6.1644   -5.8959   24.3873 N   0  0  0  0  0  0  0  0  0  0  0  0
    6.0873   -5.4550   22.9556 C   0  0  0  0  0  0  0  0  0  0  0  0
    6.3938   -6.3003   21.7550 C   0  0  0  0  0  0  0  0  0  0  0  0
 29 30  1  0  0  0
 30 31  1  0  0  0
 31 32  2  0  0  0
 31 28  1  0  0  0
 28  1  1  0  0  0
  1  2  1  0  0  0
  3  2  1  0  0  0
  3  4  1  0  0  0
  4  5  2  0  0  0
  4  6  1  0  0  0
  6 18  1  0  0  0
 18 19  2  0  0  0
 19 20  1  0  0  0
 20 21  2  0  0  0
 21 22  1  0  0  0
 22 23  2  0  0  0
 23 24  1  0  0  0
 24 25  2  0  0  0
 25 26  1  0  0  0
 26 27  2  0  0  0
  6  7  1  0  0  0
  7  8  1  0  0  0
  8 34  1  0  0  0
 34 35  1  0  0  0
 35 37  1  0  0  0
 37 38  1  0  0  0
 38 39  1  0  0  0
 39 40  2  0  0  0
 40 41  1  0  0  0
 41 42  1  0  0  0
  3  9  1  0  0  0
  9 10  2  0  0  0
 10 11  1  0  0  0
 11 12  1  0  0  0
 11 13  2  0  0  0
 13 14  1  0  0  0
 14 15  2  0  0  0
 15 16  1  0  0  0
 16 17  2  0  0  0
 16  1  1  0  0  0
  8  3  1  0  0  0
 41 37  2  0  0  0
 15  9  1  0  0  0
 27 18  1  0  0  0
 27 22  1  0  0  0
 30 33  1  0  0  0
 35 36  1  0  0  0
M  END
> <minimizedAffinity>
-8.03871

> <CNNscore>
0.1963624358

> <CNNaffinity>
6.9183282852

> <CNN_VS>
1.3584997654

> <CNNaffinity_variance>
0.0523493700

$$$$



 42 47  0  0  0  0  0  0  0  0999 V2000
    9.6284    0.7307   22.7224 N   0  0  0  0  0  0  0  0  0  0  0  0
    8.4865   -0.2347   22.6033 C   0  0  0  0  0  0  0  0  0  0  0  0
    8.5247   -1.5369   23.3467 C   0  0  0  0  0  0  0  0  0  0  0  0
    8.4225   -2.8699   24.0268 C   0  0  0  0  0  0  0  0  0  0  0  0
    9.0554   -3.5802   24.7828 O   0  0  0  0  0  0  0  0  0  0  0  0
    7.1192   -3.4956   23.6271 N   0  0  0  0  0  0  0  0  0  0  0  0
    6.4158   -2.5493   22.6999 C   0  0  0  0  0  0  0  0  0  0  0  0
    7.2845   -1.3387   22.5266 C   0  0  0  0  0  0  0  0  0  0  0  0
    9.7048   -1.8738   24.2093 C   0  0  0  0  0  0  0  0  0  0  0  0
    9.7430   -3.1761   24.9527 C   0  0  0  0  0  0  0  0  0  0  0  0
   10.9230   -3.5129   25.8152 C   0  0  0  0  0  0  0  0  0  0  0  0
   10.9612   -4.8152   26.5586 Cl  0  0  0  0  0  0  0  0  0  0  0  0
   12.0649   -2.5476   25.9343 C   0  0  0  0  0  0  0  0  0  0  0  0
   12.0268   -1.2454   25.1909 C   0  0  0  0  0  0  0  0  0  0  0  0
   10.8467   -0.9085   24.3284 C   0  0  0  0  0  0  0  0  0  0  0  0
   10.8085    0.3938   23.5849 C   0  0  0  0  0  0  0  0  0  0  0  0
   11.9504    1.3592   23.7040 O   0  0  0  0  0  0  0  0  0  0  0  0
    6.6088   -4.8329   24.0757 C   0  0  0  0  0  0  0  0  0  0  0  0
    7.1497   -6.0880   23.4576 C   0  0  0  0  0  0  0  0  0  0  0  0
    6.6393   -7.4252   23.9062 N   0  0  0  0  0  0  0  0  0  0  0  0
    5.5881   -7.5073   24.9731 C   0  0  0  0  0  0  0  0  0  0  0  0
    5.0472   -6.2522   25.5912 C   0  0  0  0  0  0  0  0  0  0  0  0
    3.9959   -6.3344   26.6581 C   0  0  0  0  0  0  0  0  0  0  0  0
    3.4551   -5.0792   27.2762 C   0  0  0  0  0  0  0  0  0  0  0  0
    3.9654   -3.7419   26.8275 C   0  0  0  0  0  0  0  0  0  0  0  0
    5.0167   -3.6598   25.7607 C   0  0  0  0  0  0  0  0  0  0  0  0
    5.5576   -4.9150   25.1426 C   0  0  0  0  0  0  0  0  0  0  0  0
    9.5902    2.0330   21.9790 C   0  0  0  0  0  0  0  0  0  0  0  0
   11.1912    5.5069   23.0367 C   0  0  0  0  0  0  0  0  0  0  0  0
   10.1710    4.4466   22.7451 N   0  0  0  0  0  0  0  0  0  0  0  0
   10.6104    3.0933   22.2706 C   0  0  0  0  0  0  0  0  0  0  0  0
   12.0701    2.8001   22.0877 O   0  0  0  0  0  0  0  0  0  0  0  0
    9.2129    4.6390   22.8651 H   0  0  0  0  0  0  0  0  0  0  0  0
    6.9684   -0.1404   21.6816 C   0  0  0  0  0  0  0  0  0  0  0  0
    6.0339   -0.2702   20.5156 N   0  0  0  0  0  0  0  0  0  0  0  0
    6.2027   -0.9490   19.8228 H   0  0  0  0  0  0  0  0  0  0  0  0
    4.8422    0.6340   20.4051 C   0  0  0  0  0  0  0  0  0  0  0  0
    4.0189    1.1512   21.5473 S   0  0  0  0  0  0  0  0  0  0  0  0
    2.9325    2.0166   20.9811 C   0  0  0  0  0  0  0  0  0  0  0  0
    3.0843    2.0343   19.4889 N   0  0  0  0  0  0  0  0  0  0  0  0
    4.2646    1.1798   19.1329 C   0  0  0  0  0  0  0  0  0  0  0  0
    4.7772    0.9171   17.7479 C   0  0  0  0  0  0  0  0  0  0  0  0
 29 30  1  0  0  0
 30 31  1  0  0  0
 31 32  2  0  0  0
 31 28  1  0  0  0
 28  1  1  0  0  0
  1  2  1  0  0  0
  3  2  1  0  0  0
  3  4  1  0  0  0
  4  5  2  0  0  0
  4  6  1  0  0  0
  6 18  1  0  0  0
 18 19  2  0  0  0
 19 20  1  0  0  0
 20 21  2  0  0  0
 21 22  1  0  0  0
 22 23  2  0  0  0
 23 24  1  0  0  0
 24 25  2  0  0  0
 25 26  1  0  0  0
 26 27  2  0  0  0
  6  7  1  0  0  0
  7  8  1  0  0  0
  8 34  1  0  0  0
 34 35  1  0  0  0
 35 37  1  0  0  0
 37 38  1  0  0  0
 38 39  1  0  0  0
 39 40  2  0  0  0
 40 41  1  0  0  0
 41 42  1  0  0  0
  3  9  1  0  0  0
  9 10  2  0  0  0
 10 11  1  0  0  0
 11 12  1  0  0  0
 11 13  2  0  0  0
 13 14  1  0  0  0
 14 15  2  0  0  0
 15 16  1  0  0  0
 16 17  2  0  0  0
 16  1  1  0  0  0
  8  3  1  0  0  0
 41 37  2  0  0  0
 15  9  1  0  0  0
 27 18  1  0  0  0
 27 22  1  0  0  0
 30 33  1  0  0  0
 35 36  1  0  0  0
M  END
> <minimizedAffinity>
-9.38728

> <CNNscore>
0.1921237111

> <CNNaffinity>
7.0078458786

> <CNN_VS>
1.3463733196

> <CNNaffinity_variance>
0.1285477281

$$$$



 42 47  0  0  0  0  0  0  0  0999 V2000
   10.7638    1.5251   22.7971 N   0  0  0  0  0  0  0  0  0  0  0  0
    9.3680    1.2263   23.2582 C   0  0  0  0  0  0  0  0  0  0  0  0
    9.1168    0.0839   24.1972 C   0  0  0  0  0  0  0  0  0  0  0  0
    8.7135   -1.0194   25.1300 C   0  0  0  0  0  0  0  0  0  0  0  0
    9.2091   -1.9291   25.7650 O   0  0  0  0  0  0  0  0  0  0  0  0
    7.2267   -0.9493   25.3157 N   0  0  0  0  0  0  0  0  0  0  0  0
    6.7110    0.1974   24.4976 C   0  0  0  0  0  0  0  0  0  0  0  0
    7.8791    0.8359   23.8064 C   0  0  0  0  0  0  0  0  0  0  0  0
   10.2613   -0.7598   24.6751 C   0  0  0  0  0  0  0  0  0  0  0  0
   10.0100   -1.9022   25.6141 C   0  0  0  0  0  0  0  0  0  0  0  0
   11.1545   -2.7458   26.0920 C   0  0  0  0  0  0  0  0  0  0  0  0
   10.9033   -3.8883   27.0310 Cl  0  0  0  0  0  0  0  0  0  0  0  0
   12.5503   -2.4470   25.6310 C   0  0  0  0  0  0  0  0  0  0  0  0
   12.8015   -1.3046   24.6920 C   0  0  0  0  0  0  0  0  0  0  0  0
   11.6570   -0.4610   24.2141 C   0  0  0  0  0  0  0  0  0  0  0  0
   11.9083    0.6815   23.2751 C   0  0  0  0  0  0  0  0  0  0  0  0
   13.3040    0.9803   22.8140 O   0  0  0  0  0  0  0  0  0  0  0  0
    6.4007   -1.8651   26.1695 C   0  0  0  0  0  0  0  0  0  0  0  0
    6.1741   -3.2856   25.7444 C   0  0  0  0  0  0  0  0  0  0  0  0
    5.3481   -4.2014   26.5983 N   0  0  0  0  0  0  0  0  0  0  0  0
    4.7486   -3.6966   27.8772 C   0  0  0  0  0  0  0  0  0  0  0  0
    4.9752   -2.2760   28.3023 C   0  0  0  0  0  0  0  0  0  0  0  0
    4.3757   -1.7712   29.5814 C   0  0  0  0  0  0  0  0  0  0  0  0
    4.6023   -0.3506   30.0064 C   0  0  0  0  0  0  0  0  0  0  0  0
    5.4283    0.5651   29.1526 C   0  0  0  0  0  0  0  0  0  0  0  0
    6.0278    0.0603   27.8736 C   0  0  0  0  0  0  0  0  0  0  0  0
    5.8012   -1.3602   27.4485 C   0  0  0  0  0  0  0  0  0  0  0  0
   11.0150    2.6676   21.8581 C   0  0  0  0  0  0  0  0  0  0  0  0
   10.7244    6.3109   23.4047 C   0  0  0  0  0  0  0  0  0  0  0  0
   10.3393    4.9660   22.8634 N   0  0  0  0  0  0  0  0  0  0  0  0
   11.4001    4.0125   22.3994 C   0  0  0  0  0  0  0  0  0  0  0  0
   12.8462    4.4038   22.4766 O   0  0  0  0  0  0  0  0  0  0  0  0
    9.3902    4.7092   22.8127 H   0  0  0  0  0  0  0  0  0  0  0  0
    7.8199    2.0187   22.8859 C   0  0  0  0  0  0  0  0  0  0  0  0
    6.5662    2.3069   22.1145 N   0  0  0  0  0  0  0  0  0  0  0  0
    6.1186    1.5858   21.6155 H   0  0  0  0  0  0  0  0  0  0  0  0
    5.9944    3.6936   22.1033 C   0  0  0  0  0  0  0  0  0  0  0  0
    6.5303    4.8744   22.8573 S   0  0  0  0  0  0  0  0  0  0  0  0
    5.6534    6.0535   22.5561 C   0  0  0  0  0  0  0  0  0  0  0  0
    4.5756    5.6014   21.6159 N   0  0  0  0  0  0  0  0  0  0  0  0
    4.7863    4.1429   21.3360 C   0  0  0  0  0  0  0  0  0  0  0  0
    3.9380    3.2844   20.4453 C   0  0  0  0  0  0  0  0  0  0  0  0
 29 30  1  0  0  0
 30 31  1  0  0  0
 31 32  2  0  0  0
 31 28  1  0  0  0
 28  1  1  0  0  0
  1  2  1  0  0  0
  3  2  1  0  0  0
  3  4  1  0  0  0
  4  5  2  0  0  0
  4  6  1  0  0  0
  6 18  1  0  0  0
 18 19  2  0  0  0
 19 20  1  0  0  0
 20 21  2  0  0  0
 21 22  1  0  0  0
 22 23  2  0  0  0
 23 24  1  0  0  0
 24 25  2  0  0  0
 25 26  1  0  0  0
 26 27  2  0  0  0
  6  7  1  0  0  0
  7  8  1  0  0  0
  8 34  1  0  0  0
 34 35  1  0  0  0
 35 37  1  0  0  0
 37 38  1  0  0  0
 38 39  1  0  0  0
 39 40  2  0  0  0
 40 41  1  0  0  0
 41 42  1  0  0  0
  3  9  1  0  0  0
  9 10  2  0  0  0
 10 11  1  0  0  0
 11 12  1  0  0  0
 11 13  2  0  0  0
 13 14  1  0  0  0
 14 15  2  0  0  0
 15 16  1  0  0  0
 16 17  2  0  0  0
 16  1  1  0  0  0
  8  3  1  0  0  0
 41 37  2  0  0  0
 15  9  1  0  0  0
 27 18  1  0  0  0
 27 22  1  0  0  0
 30 33  1  0  0  0
 35 36  1  0  0  0
M  END
> <minimizedAffinity>
-8.00986

> <CNNscore>
0.1701920033

> <CNNaffinity>
6.8907065392

> <CNN_VS>
1.1727432013

> <CNNaffinity_variance>
0.3285592496

$$$$



 42 47  0  0  0  0  0  0  0  0999 V2000
    6.8428   -3.6635   23.0259 N   0  0  0  0  0  0  0  0  0  0  0  0
    7.0832   -2.2745   22.5132 C   0  0  0  0  0  0  0  0  0  0  0  0
    8.2718   -1.4941   22.9906 C   0  0  0  0  0  0  0  0  0  0  0  0
    9.4113   -0.5974   23.3747 C   0  0  0  0  0  0  0  0  0  0  0  0
   10.3947   -0.5956   24.0883 O   0  0  0  0  0  0  0  0  0  0  0  0
    9.2587    0.6930   22.6253 N   0  0  0  0  0  0  0  0  0  0  0  0
    8.0249    0.5938   21.7780 C   0  0  0  0  0  0  0  0  0  0  0  0
    7.4150   -0.7579   22.0037 C   0  0  0  0  0  0  0  0  0  0  0  0
    9.2202   -2.1027   23.9808 C   0  0  0  0  0  0  0  0  0  0  0  0
   10.4088   -1.3222   24.4582 C   0  0  0  0  0  0  0  0  0  0  0  0
   11.3571   -1.9308   25.4483 C   0  0  0  0  0  0  0  0  0  0  0  0
   12.5458   -1.1504   25.9258 Cl  0  0  0  0  0  0  0  0  0  0  0  0
   11.1167   -3.3198   25.9610 C   0  0  0  0  0  0  0  0  0  0  0  0
    9.9280   -4.1003   25.4836 C   0  0  0  0  0  0  0  0  0  0  0  0
    8.9798   -3.4917   24.4935 C   0  0  0  0  0  0  0  0  0  0  0  0
    7.7911   -4.2721   24.0160 C   0  0  0  0  0  0  0  0  0  0  0  0
    7.5507   -5.6611   24.5287 O   0  0  0  0  0  0  0  0  0  0  0  0
   10.1784    1.8751   22.7086 C   0  0  0  0  0  0  0  0  0  0  0  0
   11.6611    1.6816   22.5897 C   0  0  0  0  0  0  0  0  0  0  0  0
   12.5808    2.8636   22.6730 N   0  0  0  0  0  0  0  0  0  0  0  0
   12.0178    4.2391   22.8751 C   0  0  0  0  0  0  0  0  0  0  0  0
   10.5350    4.4326   22.9940 C   0  0  0  0  0  0  0  0  0  0  0  0
    9.9720    5.8082   23.1961 C   0  0  0  0  0  0  0  0  0  0  0  0
    8.4893    6.0016   23.3149 C   0  0  0  0  0  0  0  0  0  0  0  0
    7.5696    4.8196   23.2316 C   0  0  0  0  0  0  0  0  0  0  0  0
    8.1326    3.4441   23.0295 C   0  0  0  0  0  0  0  0  0  0  0  0
    9.6153    3.2506   22.9107 C   0  0  0  0  0  0  0  0  0  0  0  0
    5.6541   -4.4440   22.5484 C   0  0  0  0  0  0  0  0  0  0  0  0
    3.7541   -5.2636   25.9348 C   0  0  0  0  0  0  0  0  0  0  0  0
    4.6588   -4.5936   24.9436 N   0  0  0  0  0  0  0  0  0  0  0  0
    4.7494   -5.1140   23.5397 C   0  0  0  0  0  0  0  0  0  0  0  0
    3.9352   -6.3044   23.1270 O   0  0  0  0  0  0  0  0  0  0  0  0
    5.1931   -3.8124   25.2144 H   0  0  0  0  0  0  0  0  0  0  0  0
    6.1673   -1.2815   21.3563 C   0  0  0  0  0  0  0  0  0  0  0  0
    5.7561   -0.7786   20.0044 N   0  0  0  0  0  0  0  0  0  0  0  0
    6.1025   -1.2127   19.1914 H   0  0  0  0  0  0  0  0  0  0  0  0
    4.8172    0.3857   19.8909 C   0  0  0  0  0  0  0  0  0  0  0  0
    4.4621    1.1120   18.6274 S   0  0  0  0  0  0  0  0  0  0  0  0
    3.4940    2.2033   18.9766 C   0  0  0  0  0  0  0  0  0  0  0  0
    3.2509    2.1515   20.4559 N   0  0  0  0  0  0  0  0  0  0  0  0
    4.0687    1.0281   21.0209 C   0  0  0  0  0  0  0  0  0  0  0  0
    4.1277    0.6190   22.4628 C   0  0  0  0  0  0  0  0  0  0  0  0
 29 30  1  0  0  0
 30 31  1  0  0  0
 31 32  2  0  0  0
 31 28  1  0  0  0
 28  1  1  0  0  0
  1  2  1  0  0  0
  3  2  1  0  0  0
  3  4  1  0  0  0
  4  5  2  0  0  0
  4  6  1  0  0  0
  6 18  1  0  0  0
 18 19  2  0  0  0
 19 20  1  0  0  0
 20 21  2  0  0  0
 21 22  1  0  0  0
 22 23  2  0  0  0
 23 24  1  0  0  0
 24 25  2  0  0  0
 25 26  1  0  0  0
 26 27  2  0  0  0
  6  7  1  0  0  0
  7  8  1  0  0  0
  8 34  1  0  0  0
 34 35  1  0  0  0
 35 37  1  0  0  0
 37 38  1  0  0  0
 38 39  1  0  0  0
 39 40  2  0  0  0
 40 41  1  0  0  0
 41 42  1  0  0  0
  3  9  1  0  0  0
  9 10  2  0  0  0
 10 11  1  0  0  0
 11 12  1  0  0  0
 11 13  2  0  0  0
 13 14  1  0  0  0
 14 15  2  0  0  0
 15 16  1  0  0  0
 16 17  2  0  0  0
 16  1  1  0  0  0
  8  3  1  0  0  0
 41 37  2  0  0  0
 15  9  1  0  0  0
 27 18  1  0  0  0
 27 22  1  0  0  0
 30 33  1  0  0  0
 35 36  1  0  0  0
M  END
> <minimizedAffinity>
-8.68527

> <CNNscore>
0.1589815617

> <CNNaffinity>
6.7869081497

> <CNN_VS>
1.0789932013

> <CNNaffinity_variance>
0.2711180151

$$$$
