


 38 43  0  0  0  0  0  0  0  0999 V2000
    3.8616   -4.6602   26.5015 N   0  0  0  0  0  0  0  0  0  0  0  0
    3.5264   -3.2978   27.0319 C   0  0  0  0  0  0  0  0  0  0  0  0
    4.4485   -2.1437   26.7713 C   0  0  0  0  0  0  0  0  0  0  0  0
    4.1132   -0.7812   27.3016 C   0  0  0  0  0  0  0  0  0  0  0  0
    5.0353    0.3727   27.0410 C   0  0  0  0  0  0  0  0  0  0  0  0
    6.2927    0.1643   26.2501 C   0  0  0  0  0  0  0  0  0  0  0  0
    7.2149    1.3184   25.9895 Cl  0  0  0  0  0  0  0  0  0  0  0  0
    6.6280   -1.1981   25.7198 C   0  0  0  0  0  0  0  0  0  0  0  0
    5.7059   -2.3521   25.9804 C   0  0  0  0  0  0  0  0  0  0  0  0
    6.0411   -3.7147   25.4500 C   0  0  0  0  0  0  0  0  0  0  0  0
    6.5061   -5.0126   24.8591 C   0  0  0  0  0  0  0  0  0  0  0  0
    7.8066   -4.7619   24.1550 C   0  0  0  0  0  0  0  0  0  0  0  0
    8.1454   -3.3090   24.3108 N   0  0  0  0  0  0  0  0  0  0  0  0
    7.0543   -2.6618   25.1111 C   0  0  0  0  0  0  0  0  0  0  0  0
    7.2571   -1.4760   25.2816 O   0  0  0  0  0  0  0  0  0  0  0  0
    5.1190   -4.8687   25.7106 C   0  0  0  0  0  0  0  0  0  0  0  0
    3.0066   -4.5185   27.0394 H   0  0  0  0  0  0  0  0  0  0  0  0
    9.3618   -2.6236   23.7624 C   0  0  0  0  0  0  0  0  0  0  0  0
    9.2899   -1.9074   22.4464 C   0  0  0  0  0  0  0  0  0  0  0  0
   10.5063   -1.2220   21.8981 N   0  0  0  0  0  0  0  0  0  0  0  0
   11.7946   -1.2529   22.6658 C   0  0  0  0  0  0  0  0  0  0  0  0
   11.8665   -1.9691   23.9818 C   0  0  0  0  0  0  0  0  0  0  0  0
   13.1548   -1.9999   24.7496 C   0  0  0  0  0  0  0  0  0  0  0  0
   13.2266   -2.7161   26.0656 C   0  0  0  0  0  0  0  0  0  0  0  0
   12.0102   -3.4015   26.6139 C   0  0  0  0  0  0  0  0  0  0  0  0
   10.7220   -3.3707   25.8462 C   0  0  0  0  0  0  0  0  0  0  0  0
   10.6501   -2.6545   24.5301 C   0  0  0  0  0  0  0  0  0  0  0  0
    2.9395   -5.8143   26.7621 C   0  0  0  0  0  0  0  0  0  0  0  0
    3.8805   -8.1466   26.1105 O   0  0  0  0  0  0  0  0  0  0  0  0
    2.9474   -7.0023   25.8464 C   0  0  0  0  0  0  0  0  0  0  0  0
    2.0223   -7.0458   24.6665 N   0  0  0  0  0  0  0  0  0  0  0  0
    1.4099   -6.2947   24.4931 H   0  0  0  0  0  0  0  0  0  0  0  0
    2.0302   -8.2338   23.7506 C   0  0  0  0  0  0  0  0  0  0  0  0
    1.4010   -8.1379   22.3924 C   0  0  0  0  0  0  0  0  0  0  0  0
    1.6897   -8.7314   21.0454 C   0  0  0  0  0  0  0  0  0  0  0  0
    0.5111   -8.0023   20.4715 C   0  0  0  0  0  0  0  0  0  0  0  0
   -0.1181   -7.9064   19.1132 F   0  0  0  0  0  0  0  0  0  0  0  0
    0.2224   -7.4088   21.8185 C   0  0  0  0  0  0  0  0  0  0  0  0
 29 30  2  0  0  0
 30 28  1  0  0  0
  1 28  1  0  0  0
  1  2  1  0  0  0
  2  3  1  0  0  0
  3  4  2  0  0  0
  4  5  1  0  0  0
  5  6  2  0  0  0
  6  7  1  0  0  0
  6  8  1  0  0  0
  8  9  2  0  0  0
  9 10  1  0  0  0
 10 11  1  0  0  0
 11 12  1  0  0  0
 12 13  1  0  0  0
 13 18  1  0  0  0
 18 19  2  0  0  0
 19 20  1  0  0  0
 20 21  2  0  0  0
 21 22  1  0  0  0
 22 23  2  0  0  0
 23 24  1  0  0  0
 24 25  2  0  0  0
 25 26  1  0  0  0
 26 27  2  0  0  0
 13 14  1  0  0  0
 14 15  2  0  0  0
 10 16  1  0  0  0
 30 31  1  0  0  0
 31 33  1  0  0  0
 34 33  1  0  0  0
 34 35  1  0  0  0
 35 36  1  0  0  0
 36 37  1  0  0  0
 36 38  1  0  0  0
 16  1  1  0  0  0
 38 34  1  0  0  0
  9  3  1  0  0  0
 14 10  1  0  0  0
 27 18  1  0  0  0
 27 22  1  0  0  0
  1 17  1  0  0  0
 31 32  1  0  0  0
M  CHG 1   1   1
M  END
> <minimizedAffinity>
-7.65256

> <CNNscore>
0.5205981731

> <CNNaffinity>
6.5907411575

> <CNN_VS>
3.4311277866

> <CNNaffinity_variance>
0.2296051085

$$$$



 38 43  0  0  0  0  0  0  0  0999 V2000
    8.5664    4.8206   23.3285 N   0  0  0  0  0  0  0  0  0  0  0  0
   10.0184    4.7088   22.9692 C   0  0  0  0  0  0  0  0  0  0  0  0
   10.6775    3.3622   22.9203 C   0  0  0  0  0  0  0  0  0  0  0  0
   12.1294    3.2504   22.5609 C   0  0  0  0  0  0  0  0  0  0  0  0
   12.7884    1.9038   22.5121 C   0  0  0  0  0  0  0  0  0  0  0  0
   11.9953    0.6690   22.8226 C   0  0  0  0  0  0  0  0  0  0  0  0
   12.6544   -0.6777   22.7737 Cl  0  0  0  0  0  0  0  0  0  0  0  0
   10.5433    0.7808   23.1819 C   0  0  0  0  0  0  0  0  0  0  0  0
    9.8844    2.1274   23.2308 C   0  0  0  0  0  0  0  0  0  0  0  0
    8.4323    2.2393   23.5901 C   0  0  0  0  0  0  0  0  0  0  0  0
    6.9802    2.1947   23.9633 C   0  0  0  0  0  0  0  0  0  0  0  0
    6.6025    0.7601   24.1857 C   0  0  0  0  0  0  0  0  0  0  0  0
    7.8213   -0.0819   23.9501 N   0  0  0  0  0  0  0  0  0  0  0  0
    8.9522    0.8323   23.5819 C   0  0  0  0  0  0  0  0  0  0  0  0
    9.9818    0.2216   23.3740 O   0  0  0  0  0  0  0  0  0  0  0  0
    7.7734    3.5859   23.6390 C   0  0  0  0  0  0  0  0  0  0  0  0
    9.1057    5.6603   23.1174 H   0  0  0  0  0  0  0  0  0  0  0  0
    7.8962   -1.5758   24.0627 C   0  0  0  0  0  0  0  0  0  0  0  0
    6.8913   -2.4328   23.3516 C   0  0  0  0  0  0  0  0  0  0  0  0
    6.9661   -3.9267   23.4642 N   0  0  0  0  0  0  0  0  0  0  0  0
    8.0458   -4.5636   24.2880 C   0  0  0  0  0  0  0  0  0  0  0  0
    9.0507   -3.7065   24.9991 C   0  0  0  0  0  0  0  0  0  0  0  0
   10.1305   -4.3434   25.8229 C   0  0  0  0  0  0  0  0  0  0  0  0
   11.1353   -3.4863   26.5340 C   0  0  0  0  0  0  0  0  0  0  0  0
   11.0605   -1.9924   26.4214 C   0  0  0  0  0  0  0  0  0  0  0  0
    9.9808   -1.3556   25.5976 C   0  0  0  0  0  0  0  0  0  0  0  0
    8.9759   -2.2126   24.8865 C   0  0  0  0  0  0  0  0  0  0  0  0
    7.9074    6.1673   23.3774 C   0  0  0  0  0  0  0  0  0  0  0  0
    8.1545    8.5519   24.3787 O   0  0  0  0  0  0  0  0  0  0  0  0
    8.1194    7.0635   24.5614 C   0  0  0  0  0  0  0  0  0  0  0  0
    8.2961    6.4712   25.9281 N   0  0  0  0  0  0  0  0  0  0  0  0
    8.2731    5.4943   26.0480 H   0  0  0  0  0  0  0  0  0  0  0  0
    8.5081    7.3674   27.1122 C   0  0  0  0  0  0  0  0  0  0  0  0
    9.8894    7.5731   27.6594 C   0  0  0  0  0  0  0  0  0  0  0  0
   10.6320    7.0953   28.8719 C   0  0  0  0  0  0  0  0  0  0  0  0
   11.8431    7.8640   28.4332 C   0  0  0  0  0  0  0  0  0  0  0  0
   13.2245    8.0697   28.9805 F   0  0  0  0  0  0  0  0  0  0  0  0
   11.1005    8.3418   27.2206 C   0  0  0  0  0  0  0  0  0  0  0  0
 29 30  2  0  0  0
 30 28  1  0  0  0
  1 28  1  0  0  0
  1  2  1  0  0  0
  2  3  1  0  0  0
  3  4  2  0  0  0
  4  5  1  0  0  0
  5  6  2  0  0  0
  6  7  1  0  0  0
  6  8  1  0  0  0
  8  9  2  0  0  0
  9 10  1  0  0  0
 10 11  1  0  0  0
 11 12  1  0  0  0
 12 13  1  0  0  0
 13 18  1  0  0  0
 18 19  2  0  0  0
 19 20  1  0  0  0
 20 21  2  0  0  0
 21 22  1  0  0  0
 22 23  2  0  0  0
 23 24  1  0  0  0
 24 25  2  0  0  0
 25 26  1  0  0  0
 26 27  2  0  0  0
 13 14  1  0  0  0
 14 15  2  0  0  0
 10 16  1  0  0  0
 30 31  1  0  0  0
 31 33  1  0  0  0
 34 33  1  0  0  0
 34 35  1  0  0  0
 35 36  1  0  0  0
 36 37  1  0  0  0
 36 38  1  0  0  0
 16  1  1  0  0  0
 38 34  1  0  0  0
  9  3  1  0  0  0
 14 10  1  0  0  0
 27 18  1  0  0  0
 27 22  1  0  0  0
  1 17  1  0  0  0
 31 32  1  0  0  0
M  CHG 1   1   1
M  END
> <minimizedAffinity>
-7.64765

> <CNNscore>
0.5034233928

> <CNNaffinity>
6.6487245560

> <CNN_VS>
3.3471233845

> <CNNaffinity_variance>
0.2415588647

$$$$



 38 43  0  0  0  0  0  0  0  0999 V2000
   11.1481    0.5902   23.3312 N   0  0  0  0  0  0  0  0  0  0  0  0
   12.2010   -0.0973   24.1490 C   0  0  0  0  0  0  0  0  0  0  0  0
   11.8428   -1.2935   24.9802 C   0  0  0  0  0  0  0  0  0  0  0  0
   12.8957   -1.9810   25.7980 C   0  0  0  0  0  0  0  0  0  0  0  0
   12.5375   -3.1772   26.6290 C   0  0  0  0  0  0  0  0  0  0  0  0
   11.1265   -3.6860   26.6423 C   0  0  0  0  0  0  0  0  0  0  0  0
   10.7684   -4.8823   27.4735 Cl  0  0  0  0  0  0  0  0  0  0  0  0
   10.0736   -2.9985   25.8245 C   0  0  0  0  0  0  0  0  0  0  0  0
   10.4318   -1.8023   24.9934 C   0  0  0  0  0  0  0  0  0  0  0  0
    9.3789   -1.1148   24.1756 C   0  0  0  0  0  0  0  0  0  0  0  0
    8.2250   -0.5340   23.4132 C   0  0  0  0  0  0  0  0  0  0  0  0
    7.0070   -1.3539   23.7200 C   0  0  0  0  0  0  0  0  0  0  0  0
    7.4081   -2.4415   24.6720 N   0  0  0  0  0  0  0  0  0  0  0  0
    8.8740   -2.2937   24.9536 C   0  0  0  0  0  0  0  0  0  0  0  0
    9.2778   -3.1438   25.7221 O   0  0  0  0  0  0  0  0  0  0  0  0
    9.7371    0.0814   23.3445 C   0  0  0  0  0  0  0  0  0  0  0  0
   12.1076    0.9362   23.3222 H   0  0  0  0  0  0  0  0  0  0  0  0
    6.5023   -3.4924   25.2424 C   0  0  0  0  0  0  0  0  0  0  0  0
    6.1947   -4.7281   24.4496 C   0  0  0  0  0  0  0  0  0  0  0  0
    5.2890   -5.7789   25.0200 N   0  0  0  0  0  0  0  0  0  0  0  0
    4.6908   -5.5941   26.3830 C   0  0  0  0  0  0  0  0  0  0  0  0
    4.9985   -4.3584   27.1758 C   0  0  0  0  0  0  0  0  0  0  0  0
    4.4003   -4.1736   28.5390 C   0  0  0  0  0  0  0  0  0  0  0  0
    4.7080   -2.9378   29.3317 C   0  0  0  0  0  0  0  0  0  0  0  0
    5.6137   -1.8870   28.7613 C   0  0  0  0  0  0  0  0  0  0  0  0
    6.2118   -2.0718   27.3982 C   0  0  0  0  0  0  0  0  0  0  0  0
    5.9042   -3.3075   26.6055 C   0  0  0  0  0  0  0  0  0  0  0  0
   11.5062    1.7865   22.5001 C   0  0  0  0  0  0  0  0  0  0  0  0
   12.3271    3.9013   23.7664 O   0  0  0  0  0  0  0  0  0  0  0  0
   11.2492    3.1681   23.0244 C   0  0  0  0  0  0  0  0  0  0  0  0
    9.9143    3.8166   22.8066 N   0  0  0  0  0  0  0  0  0  0  0  0
    9.2069    3.3354   22.3196 H   0  0  0  0  0  0  0  0  0  0  0  0
    9.6572    5.1983   23.3309 C   0  0  0  0  0  0  0  0  0  0  0  0
   10.4811    6.3519   22.8406 C   0  0  0  0  0  0  0  0  0  0  0  0
   10.5139    7.8256   23.1182 C   0  0  0  0  0  0  0  0  0  0  0  0
   11.6463    7.9833   22.1472 C   0  0  0  0  0  0  0  0  0  0  0  0
   12.4703    9.1370   21.6569 F   0  0  0  0  0  0  0  0  0  0  0  0
   11.6135    6.5096   21.8696 C   0  0  0  0  0  0  0  0  0  0  0  0
 29 30  2  0  0  0
 30 28  1  0  0  0
  1 28  1  0  0  0
  1  2  1  0  0  0
  2  3  1  0  0  0
  3  4  2  0  0  0
  4  5  1  0  0  0
  5  6  2  0  0  0
  6  7  1  0  0  0
  6  8  1  0  0  0
  8  9  2  0  0  0
  9 10  1  0  0  0
 10 11  1  0  0  0
 11 12  1  0  0  0
 12 13  1  0  0  0
 13 18  1  0  0  0
 18 19  2  0  0  0
 19 20  1  0  0  0
 20 21  2  0  0  0
 21 22  1  0  0  0
 22 23  2  0  0  0
 23 24  1  0  0  0
 24 25  2  0  0  0
 25 26  1  0  0  0
 26 27  2  0  0  0
 13 14  1  0  0  0
 14 15  2  0  0  0
 10 16  1  0  0  0
 30 31  1  0  0  0
 31 33  1  0  0  0
 34 33  1  0  0  0
 34 35  1  0  0  0
 35 36  1  0  0  0
 36 37  1  0  0  0
 36 38  1  0  0  0
 16  1  1  0  0  0
 38 34  1  0  0  0
  9  3  1  0  0  0
 14 10  1  0  0  0
 27 18  1  0  0  0
 27 22  1  0  0  0
  1 17  1  0  0  0
 31 32  1  0  0  0
M  CHG 1   1   1
M  END
> <minimizedAffinity>
-8.30154

> <CNNscore>
0.3823543489

> <CNNaffinity>
6.6721673012

> <CNN_VS>
2.5511322021

> <CNNaffinity_variance>
0.2620977163

$$$$



 38 43  0  0  0  0  0  0  0  0999 V2000
    6.5865   -3.1624   25.0484 N   0  0  0  0  0  0  0  0  0  0  0  0
    7.7350   -3.8468   25.7283 C   0  0  0  0  0  0  0  0  0  0  0  0
    9.0976   -3.2197   25.7125 C   0  0  0  0  0  0  0  0  0  0  0  0
   10.2462   -3.9042   26.3924 C   0  0  0  0  0  0  0  0  0  0  0  0
   11.6086   -3.2770   26.3766 C   0  0  0  0  0  0  0  0  0  0  0  0
   11.8226   -1.9655   25.6809 C   0  0  0  0  0  0  0  0  0  0  0  0
   13.1852   -1.3384   25.6651 Cl  0  0  0  0  0  0  0  0  0  0  0  0
   10.6740   -1.2810   25.0010 C   0  0  0  0  0  0  0  0  0  0  0  0
    9.3116   -1.9082   25.0168 C   0  0  0  0  0  0  0  0  0  0  0  0
    8.1629   -1.2237   24.3368 C   0  0  0  0  0  0  0  0  0  0  0  0
    7.1158   -0.4260   23.6177 C   0  0  0  0  0  0  0  0  0  0  0  0
    7.7672    0.8112   23.0745 C   0  0  0  0  0  0  0  0  0  0  0  0
    9.2170    0.7781   23.4579 N   0  0  0  0  0  0  0  0  0  0  0  0
    9.4615   -0.4796   24.2381 C   0  0  0  0  0  0  0  0  0  0  0  0
   10.6210   -0.5804   24.5872 O   0  0  0  0  0  0  0  0  0  0  0  0
    6.8004   -1.8508   24.3526 C   0  0  0  0  0  0  0  0  0  0  0  0
    6.4410   -4.0543   25.5215 H   0  0  0  0  0  0  0  0  0  0  0  0
   10.2423    1.8197   23.1205 C   0  0  0  0  0  0  0  0  0  0  0  0
   11.6443    1.4094   22.7798 C   0  0  0  0  0  0  0  0  0  0  0  0
   12.6696    2.4510   22.4423 N   0  0  0  0  0  0  0  0  0  0  0  0
   12.2928    3.9029   22.4456 C   0  0  0  0  0  0  0  0  0  0  0  0
   10.8908    4.3132   22.7863 C   0  0  0  0  0  0  0  0  0  0  0  0
   10.5141    5.7651   22.7895 C   0  0  0  0  0  0  0  0  0  0  0  0
    9.1120    6.1753   23.1302 C   0  0  0  0  0  0  0  0  0  0  0  0
    8.0868    5.1337   23.4677 C   0  0  0  0  0  0  0  0  0  0  0  0
    8.4635    3.6818   23.4644 C   0  0  0  0  0  0  0  0  0  0  0  0
    9.8655    3.2716   23.1237 C   0  0  0  0  0  0  0  0  0  0  0  0
    5.2239   -3.7895   25.0641 C   0  0  0  0  0  0  0  0  0  0  0  0
    6.0033   -5.5645   23.3344 O   0  0  0  0  0  0  0  0  0  0  0  0
    4.9692   -5.0495   24.2912 C   0  0  0  0  0  0  0  0  0  0  0  0
    3.6804   -5.7946   24.4751 N   0  0  0  0  0  0  0  0  0  0  0  0
    3.0017   -5.4566   25.1031 H   0  0  0  0  0  0  0  0  0  0  0  0
    3.4257   -7.0547   23.7022 C   0  0  0  0  0  0  0  0  0  0  0  0
    2.1351   -7.2302   22.9582 C   0  0  0  0  0  0  0  0  0  0  0  0
    1.5089   -8.3409   22.1681 C   0  0  0  0  0  0  0  0  0  0  0  0
    0.3099   -7.4785   21.9060 C   0  0  0  0  0  0  0  0  0  0  0  0
   -0.9807   -7.6540   21.1619 F   0  0  0  0  0  0  0  0  0  0  0  0
    0.9361   -6.3678   22.6961 C   0  0  0  0  0  0  0  0  0  0  0  0
 29 30  2  0  0  0
 30 28  1  0  0  0
  1 28  1  0  0  0
  1  2  1  0  0  0
  2  3  1  0  0  0
  3  4  2  0  0  0
  4  5  1  0  0  0
  5  6  2  0  0  0
  6  7  1  0  0  0
  6  8  1  0  0  0
  8  9  2  0  0  0
  9 10  1  0  0  0
 10 11  1  0  0  0
 11 12  1  0  0  0
 12 13  1  0  0  0
 13 18  1  0  0  0
 18 19  2  0  0  0
 19 20  1  0  0  0
 20 21  2  0  0  0
 21 22  1  0  0  0
 22 23  2  0  0  0
 23 24  1  0  0  0
 24 25  2  0  0  0
 25 26  1  0  0  0
 26 27  2  0  0  0
 13 14  1  0  0  0
 14 15  2  0  0  0
 10 16  1  0  0  0
 30 31  1  0  0  0
 31 33  1  0  0  0
 34 33  1  0  0  0
 34 35  1  0  0  0
 35 36  1  0  0  0
 36 37  1  0  0  0
 36 38  1  0  0  0
 16  1  1  0  0  0
 38 34  1  0  0  0
  9  3  1  0  0  0
 14 10  1  0  0  0
 27 18  1  0  0  0
 27 22  1  0  0  0
  1 17  1  0  0  0
 31 32  1  0  0  0
M  CHG 1   1   1
M  END
> <minimizedAffinity>
-7.71786

> <CNNscore>
0.3709653318

> <CNNaffinity>
6.4578614235

> <CNN_VS>
2.3956427574

> <CNNaffinity_variance>
0.2400304526

$$$$



 38 43  0  0  0  0  0  0  0  0999 V2000
   11.3468    0.5549   23.1200 N   0  0  0  0  0  0  0  0  0  0  0  0
   12.3019   -0.0165   24.1256 C   0  0  0  0  0  0  0  0  0  0  0  0
   11.9630   -1.2897   24.8427 C   0  0  0  0  0  0  0  0  0  0  0  0
   12.9180   -1.8612   25.8483 C   0  0  0  0  0  0  0  0  0  0  0  0
   12.5791   -3.1343   26.5654 C   0  0  0  0  0  0  0  0  0  0  0  0
   11.2851   -3.8360   26.2768 C   0  0  0  0  0  0  0  0  0  0  0  0
   10.9463   -5.1092   26.9940 Cl  0  0  0  0  0  0  0  0  0  0  0  0
   10.3301   -3.2646   25.2713 C   0  0  0  0  0  0  0  0  0  0  0  0
   10.6690   -1.9914   24.5542 C   0  0  0  0  0  0  0  0  0  0  0  0
    9.7139   -1.4199   23.5486 C   0  0  0  0  0  0  0  0  0  0  0  0
    8.6655   -0.9708   22.5743 C   0  0  0  0  0  0  0  0  0  0  0  0
    7.5448   -1.9672   22.6072 C   0  0  0  0  0  0  0  0  0  0  0  0
    7.9005   -3.0322   23.6018 N   0  0  0  0  0  0  0  0  0  0  0  0
    9.2411   -2.6939   24.1836 C   0  0  0  0  0  0  0  0  0  0  0  0
    9.6016   -3.5149   25.0036 O   0  0  0  0  0  0  0  0  0  0  0  0
   10.0528   -0.1468   22.8315 C   0  0  0  0  0  0  0  0  0  0  0  0
   12.2267    1.0321   23.3162 H   0  0  0  0  0  0  0  0  0  0  0  0
    7.0628   -4.2259   23.9530 C   0  0  0  0  0  0  0  0  0  0  0  0
    7.1268   -5.4624   23.1063 C   0  0  0  0  0  0  0  0  0  0  0  0
    6.2891   -6.6561   23.4575 N   0  0  0  0  0  0  0  0  0  0  0  0
    5.3874   -6.6132   24.6554 C   0  0  0  0  0  0  0  0  0  0  0  0
    5.3234   -5.3767   25.5022 C   0  0  0  0  0  0  0  0  0  0  0  0
    4.4216   -5.3339   26.7002 C   0  0  0  0  0  0  0  0  0  0  0  0
    4.3577   -4.0973   27.5469 C   0  0  0  0  0  0  0  0  0  0  0  0
    5.1954   -2.9037   27.1957 C   0  0  0  0  0  0  0  0  0  0  0  0
    6.0971   -2.9465   25.9977 C   0  0  0  0  0  0  0  0  0  0  0  0
    6.1611   -4.1830   25.1510 C   0  0  0  0  0  0  0  0  0  0  0  0
   11.6857    1.8281   22.4029 C   0  0  0  0  0  0  0  0  0  0  0  0
   12.1171    3.9997   23.7623 O   0  0  0  0  0  0  0  0  0  0  0  0
   11.2017    3.1427   22.9392 C   0  0  0  0  0  0  0  0  0  0  0  0
    9.8022    3.6001   22.6525 N   0  0  0  0  0  0  0  0  0  0  0  0
    9.2014    3.0376   22.1122 H   0  0  0  0  0  0  0  0  0  0  0  0
    9.3181    4.9147   23.1888 C   0  0  0  0  0  0  0  0  0  0  0  0
   10.1455    6.1517   23.0012 C   0  0  0  0  0  0  0  0  0  0  0  0
   10.3372    7.4261   23.7688 C   0  0  0  0  0  0  0  0  0  0  0  0
   11.3156    7.9012   22.7358 C   0  0  0  0  0  0  0  0  0  0  0  0
   12.1429    9.1383   22.5482 F   0  0  0  0  0  0  0  0  0  0  0  0
   11.1239    6.6268   21.9682 C   0  0  0  0  0  0  0  0  0  0  0  0
 29 30  2  0  0  0
 30 28  1  0  0  0
  1 28  1  0  0  0
  1  2  1  0  0  0
  2  3  1  0  0  0
  3  4  2  0  0  0
  4  5  1  0  0  0
  5  6  2  0  0  0
  6  7  1  0  0  0
  6  8  1  0  0  0
  8  9  2  0  0  0
  9 10  1  0  0  0
 10 11  1  0  0  0
 11 12  1  0  0  0
 12 13  1  0  0  0
 13 18  1  0  0  0
 18 19  2  0  0  0
 19 20  1  0  0  0
 20 21  2  0  0  0
 21 22  1  0  0  0
 22 23  2  0  0  0
 23 24  1  0  0  0
 24 25  2  0  0  0
 25 26  1  0  0  0
 26 27  2  0  0  0
 13 14  1  0  0  0
 14 15  2  0  0  0
 10 16  1  0  0  0
 30 31  1  0  0  0
 31 33  1  0  0  0
 34 33  1  0  0  0
 34 35  1  0  0  0
 35 36  1  0  0  0
 36 37  1  0  0  0
 36 38  1  0  0  0
 16  1  1  0  0  0
 38 34  1  0  0  0
  9  3  1  0  0  0
 14 10  1  0  0  0
 27 18  1  0  0  0
 27 22  1  0  0  0
  1 17  1  0  0  0
 31 32  1  0  0  0
M  CHG 1   1   1
M  END
> <minimizedAffinity>
-8.50651

> <CNNscore>
0.3508956134

> <CNNaffinity>
6.6965117455

> <CNN_VS>
2.3497765064

> <CNNaffinity_variance>
0.1130453348

$$$$



 38 43  0  0  0  0  0  0  0  0999 V2000
    9.3380    4.9742   23.0663 N   0  0  0  0  0  0  0  0  0  0  0  0
   10.7069    4.3632   23.0128 C   0  0  0  0  0  0  0  0  0  0  0  0
   10.8604    2.8743   22.9151 C   0  0  0  0  0  0  0  0  0  0  0  0
   12.2292    2.2633   22.8616 C   0  0  0  0  0  0  0  0  0  0  0  0
   12.3827    0.7744   22.7639 C   0  0  0  0  0  0  0  0  0  0  0  0
   11.1673   -0.1035   22.7196 C   0  0  0  0  0  0  0  0  0  0  0  0
   11.3208   -1.5925   22.6219 Cl  0  0  0  0  0  0  0  0  0  0  0  0
    9.7984    0.5074   22.7732 C   0  0  0  0  0  0  0  0  0  0  0  0
    9.6450    1.9963   22.8709 C   0  0  0  0  0  0  0  0  0  0  0  0
    8.2760    2.6073   22.9244 C   0  0  0  0  0  0  0  0  0  0  0  0
    6.8506    3.0720   22.9690 C   0  0  0  0  0  0  0  0  0  0  0  0
    5.9662    1.8624   22.9000 C   0  0  0  0  0  0  0  0  0  0  0  0
    6.8452    0.6501   22.8127 N   0  0  0  0  0  0  0  0  0  0  0  0
    8.2727    1.1104   22.8278 C   0  0  0  0  0  0  0  0  0  0  0  0
    9.0516    0.1803   22.7597 O   0  0  0  0  0  0  0  0  0  0  0  0
    8.1226    4.0962   23.0221 C   0  0  0  0  0  0  0  0  0  0  0  0
   10.1645    5.5712   23.0964 H   0  0  0  0  0  0  0  0  0  0  0  0
    6.3785   -0.7729   22.7256 C   0  0  0  0  0  0  0  0  0  0  0  0
    5.8495   -1.3107   21.4291 C   0  0  0  0  0  0  0  0  0  0  0  0
    5.3828   -2.7336   21.3420 N   0  0  0  0  0  0  0  0  0  0  0  0
    5.4453   -3.6187   22.5514 C   0  0  0  0  0  0  0  0  0  0  0  0
    5.9743   -3.0809   23.8479 C   0  0  0  0  0  0  0  0  0  0  0  0
    6.0368   -3.9660   25.0573 C   0  0  0  0  0  0  0  0  0  0  0  0
    6.5659   -3.4282   26.3538 C   0  0  0  0  0  0  0  0  0  0  0  0
    7.0325   -2.0052   26.4409 C   0  0  0  0  0  0  0  0  0  0  0  0
    6.9700   -1.1201   25.2315 C   0  0  0  0  0  0  0  0  0  0  0  0
    6.4410   -1.6580   23.9350 C   0  0  0  0  0  0  0  0  0  0  0  0
    9.1845    6.4631   23.1641 C   0  0  0  0  0  0  0  0  0  0  0  0
   11.2393    8.0456   23.3176 O   0  0  0  0  0  0  0  0  0  0  0  0
   10.1486    7.2640   23.9881 C   0  0  0  0  0  0  0  0  0  0  0  0
   10.0220    7.2834   25.4826 N   0  0  0  0  0  0  0  0  0  0  0  0
    9.3062    6.7704   25.9226 H   0  0  0  0  0  0  0  0  0  0  0  0
   10.9862    8.0843   26.3067 C   0  0  0  0  0  0  0  0  0  0  0  0
   11.0698    7.8641   27.7880 C   0  0  0  0  0  0  0  0  0  0  0  0
   10.1266    7.3615   28.8405 C   0  0  0  0  0  0  0  0  0  0  0  0
   11.1881    7.5527   29.8830 C   0  0  0  0  0  0  0  0  0  0  0  0
   11.2717    7.3324   31.3645 F   0  0  0  0  0  0  0  0  0  0  0  0
   12.1313    8.0553   28.8305 C   0  0  0  0  0  0  0  0  0  0  0  0
 29 30  2  0  0  0
 30 28  1  0  0  0
  1 28  1  0  0  0
  1  2  1  0  0  0
  2  3  1  0  0  0
  3  4  2  0  0  0
  4  5  1  0  0  0
  5  6  2  0  0  0
  6  7  1  0  0  0
  6  8  1  0  0  0
  8  9  2  0  0  0
  9 10  1  0  0  0
 10 11  1  0  0  0
 11 12  1  0  0  0
 12 13  1  0  0  0
 13 18  1  0  0  0
 18 19  2  0  0  0
 19 20  1  0  0  0
 20 21  2  0  0  0
 21 22  1  0  0  0
 22 23  2  0  0  0
 23 24  1  0  0  0
 24 25  2  0  0  0
 25 26  1  0  0  0
 26 27  2  0  0  0
 13 14  1  0  0  0
 14 15  2  0  0  0
 10 16  1  0  0  0
 30 31  1  0  0  0
 31 33  1  0  0  0
 34 33  1  0  0  0
 34 35  1  0  0  0
 35 36  1  0  0  0
 36 37  1  0  0  0
 36 38  1  0  0  0
 16  1  1  0  0  0
 38 34  1  0  0  0
  9  3  1  0  0  0
 14 10  1  0  0  0
 27 18  1  0  0  0
 27 22  1  0  0  0
  1 17  1  0  0  0
 31 32  1  0  0  0
M  CHG 1   1   1
M  END
> <minimizedAffinity>
-7.43599

> <CNNscore>
0.3467659652

> <CNNaffinity>
6.4218902588

> <CNN_VS>
2.2268929482

> <CNNaffinity_variance>
0.3834775984

$$$$



 38 43  0  0  0  0  0  0  0  0999 V2000
   11.3943    0.7163   23.5140 N   0  0  0  0  0  0  0  0  0  0  0  0
   12.4302   -0.1358   24.1854 C   0  0  0  0  0  0  0  0  0  0  0  0
   12.0094   -1.2961   25.0378 C   0  0  0  0  0  0  0  0  0  0  0  0
   13.0453   -2.1482   25.7092 C   0  0  0  0  0  0  0  0  0  0  0  0
   12.6244   -3.3085   26.5616 C   0  0  0  0  0  0  0  0  0  0  0  0
   11.1676   -3.6167   26.7425 C   0  0  0  0  0  0  0  0  0  0  0  0
   10.7467   -4.7770   27.5950 Cl  0  0  0  0  0  0  0  0  0  0  0  0
   10.1317   -2.7646   26.0712 C   0  0  0  0  0  0  0  0  0  0  0  0
   10.5526   -1.6043   25.2188 C   0  0  0  0  0  0  0  0  0  0  0  0
    9.5166   -0.7522   24.5473 C   0  0  0  0  0  0  0  0  0  0  0  0
    8.3731    0.0066   23.9420 C   0  0  0  0  0  0  0  0  0  0  0  0
    7.0973   -0.6455   24.3860 C   0  0  0  0  0  0  0  0  0  0  0  0
    7.4524   -1.8074   25.2657 N   0  0  0  0  0  0  0  0  0  0  0  0
    8.9476   -1.8733   25.3655 C   0  0  0  0  0  0  0  0  0  0  0  0
    9.3168   -2.7948   26.0661 O   0  0  0  0  0  0  0  0  0  0  0  0
    9.9375    0.4081   23.6950 C   0  0  0  0  0  0  0  0  0  0  0  0
   12.3850    0.9259   23.3909 H   0  0  0  0  0  0  0  0  0  0  0  0
    6.4825   -2.7397   25.9293 C   0  0  0  0  0  0  0  0  0  0  0  0
    5.7704   -2.3157   27.1796 C   0  0  0  0  0  0  0  0  0  0  0  0
    4.8006   -3.2480   27.8431 N   0  0  0  0  0  0  0  0  0  0  0  0
    4.5429   -4.6042   27.2563 C   0  0  0  0  0  0  0  0  0  0  0  0
    5.2550   -5.0281   26.0061 C   0  0  0  0  0  0  0  0  0  0  0  0
    4.9973   -6.3844   25.4193 C   0  0  0  0  0  0  0  0  0  0  0  0
    5.7094   -6.8082   24.1690 C   0  0  0  0  0  0  0  0  0  0  0  0
    6.6793   -5.8760   23.5055 C   0  0  0  0  0  0  0  0  0  0  0  0
    6.9370   -4.5198   24.0922 C   0  0  0  0  0  0  0  0  0  0  0  0
    6.2248   -4.0959   25.3425 C   0  0  0  0  0  0  0  0  0  0  0  0
   11.8152    1.8766   22.6616 C   0  0  0  0  0  0  0  0  0  0  0  0
   12.5150    4.1526   23.7009 O   0  0  0  0  0  0  0  0  0  0  0  0
   11.4700    3.2761   23.0764 C   0  0  0  0  0  0  0  0  0  0  0  0
   10.0800    3.7992   22.8668 N   0  0  0  0  0  0  0  0  0  0  0  0
    9.3941    3.2240   22.4570 H   0  0  0  0  0  0  0  0  0  0  0  0
    9.7347    5.1988   23.2817 C   0  0  0  0  0  0  0  0  0  0  0  0
   10.5524    6.3526   22.7815 C   0  0  0  0  0  0  0  0  0  0  0  0
   10.6966    7.7956   23.1650 C   0  0  0  0  0  0  0  0  0  0  0  0
   11.7088    7.9843   22.0742 C   0  0  0  0  0  0  0  0  0  0  0  0
   12.5265    9.1382   21.5740 F   0  0  0  0  0  0  0  0  0  0  0  0
   11.5645    6.5413   21.6907 C   0  0  0  0  0  0  0  0  0  0  0  0
 29 30  2  0  0  0
 30 28  1  0  0  0
  1 28  1  0  0  0
  1  2  1  0  0  0
  2  3  1  0  0  0
  3  4  2  0  0  0
  4  5  1  0  0  0
  5  6  2  0  0  0
  6  7  1  0  0  0
  6  8  1  0  0  0
  8  9  2  0  0  0
  9 10  1  0  0  0
 10 11  1  0  0  0
 11 12  1  0  0  0
 12 13  1  0  0  0
 13 18  1  0  0  0
 18 19  2  0  0  0
 19 20  1  0  0  0
 20 21  2  0  0  0
 21 22  1  0  0  0
 22 23  2  0  0  0
 23 24  1  0  0  0
 24 25  2  0  0  0
 25 26  1  0  0  0
 26 27  2  0  0  0
 13 14  1  0  0  0
 14 15  2  0  0  0
 10 16  1  0  0  0
 30 31  1  0  0  0
 31 33  1  0  0  0
 34 33  1  0  0  0
 34 35  1  0  0  0
 35 36  1  0  0  0
 36 37  1  0  0  0
 36 38  1  0  0  0
 16  1  1  0  0  0
 38 34  1  0  0  0
  9  3  1  0  0  0
 14 10  1  0  0  0
 27 18  1  0  0  0
 27 22  1  0  0  0
  1 17  1  0  0  0
 31 32  1  0  0  0
M  CHG 1   1   1
M  END
> <minimizedAffinity>
-8.74188

> <CNNscore>
0.3345308304

> <CNNaffinity>
6.6865396500

> <CNN_VS>
2.2368535995

> <CNNaffinity_variance>
0.2032146901

$$$$



 38 43  0  0  0  0  0  0  0  0999 V2000
   11.1335    1.3188   23.3988 N   0  0  0  0  0  0  0  0  0  0  0  0
   12.2398    0.5068   24.0043 C   0  0  0  0  0  0  0  0  0  0  0  0
   11.9202   -0.7412   24.7727 C   0  0  0  0  0  0  0  0  0  0  0  0
   13.0265   -1.5532   25.3782 C   0  0  0  0  0  0  0  0  0  0  0  0
   12.7069   -2.8011   26.1465 C   0  0  0  0  0  0  0  0  0  0  0  0
   11.2809   -3.2371   26.3094 C   0  0  0  0  0  0  0  0  0  0  0  0
   10.9612   -4.4851   27.0778 Cl  0  0  0  0  0  0  0  0  0  0  0  0
   10.1746   -2.4251   25.7039 C   0  0  0  0  0  0  0  0  0  0  0  0
   10.4942   -1.1771   24.9355 C   0  0  0  0  0  0  0  0  0  0  0  0
    9.3879   -0.3651   24.3300 C   0  0  0  0  0  0  0  0  0  0  0  0
    8.1822    0.3409   23.7840 C   0  0  0  0  0  0  0  0  0  0  0  0
    6.9664   -0.4413   24.1840 C   0  0  0  0  0  0  0  0  0  0  0  0
    7.4206   -1.6306   24.9772 N   0  0  0  0  0  0  0  0  0  0  0  0
    8.9171   -1.5835   25.0674 C   0  0  0  0  0  0  0  0  0  0  0  0
    9.3646   -2.5199   25.6992 O   0  0  0  0  0  0  0  0  0  0  0  0
    9.7075    0.8829   23.5617 C   0  0  0  0  0  0  0  0  0  0  0  0
   12.1032    1.6153   23.2880 H   0  0  0  0  0  0  0  0  0  0  0  0
    6.5339   -2.6824   25.5752 C   0  0  0  0  0  0  0  0  0  0  0  0
    5.9077   -2.4596   26.9200 C   0  0  0  0  0  0  0  0  0  0  0  0
    5.0211   -3.5114   27.5180 N   0  0  0  0  0  0  0  0  0  0  0  0
    4.7606   -4.7859   26.7713 C   0  0  0  0  0  0  0  0  0  0  0  0
    5.3868   -5.0087   25.4265 C   0  0  0  0  0  0  0  0  0  0  0  0
    5.1263   -6.2833   24.6798 C   0  0  0  0  0  0  0  0  0  0  0  0
    5.7525   -6.5060   23.3350 C   0  0  0  0  0  0  0  0  0  0  0  0
    6.6391   -5.4543   22.7370 C   0  0  0  0  0  0  0  0  0  0  0  0
    6.8996   -4.1797   23.4838 C   0  0  0  0  0  0  0  0  0  0  0  0
    6.2734   -3.9569   24.8285 C   0  0  0  0  0  0  0  0  0  0  0  0
   11.4531    2.5668   22.6304 C   0  0  0  0  0  0  0  0  0  0  0  0
    9.0862    3.5631   23.0240 O   0  0  0  0  0  0  0  0  0  0  0  0
   10.5419    3.7551   22.7171 C   0  0  0  0  0  0  0  0  0  0  0  0
   11.0862    5.1353   22.4969 N   0  0  0  0  0  0  0  0  0  0  0  0
   12.0416    5.2613   22.2955 H   0  0  0  0  0  0  0  0  0  0  0  0
   10.1749    6.3237   22.5837 C   0  0  0  0  0  0  0  0  0  0  0  0
    9.9093    6.9699   23.9110 C   0  0  0  0  0  0  0  0  0  0  0  0
   10.7574    7.6262   24.9598 C   0  0  0  0  0  0  0  0  0  0  0  0
    9.5337    7.8837   25.7882 C   0  0  0  0  0  0  0  0  0  0  0  0
    9.2682    8.5300   27.1156 F   0  0  0  0  0  0  0  0  0  0  0  0
    8.6856    7.2274   24.7394 C   0  0  0  0  0  0  0  0  0  0  0  0
 29 30  2  0  0  0
 30 28  1  0  0  0
  1 28  1  0  0  0
  1  2  1  0  0  0
  2  3  1  0  0  0
  3  4  2  0  0  0
  4  5  1  0  0  0
  5  6  2  0  0  0
  6  7  1  0  0  0
  6  8  1  0  0  0
  8  9  2  0  0  0
  9 10  1  0  0  0
 10 11  1  0  0  0
 11 12  1  0  0  0
 12 13  1  0  0  0
 13 18  1  0  0  0
 18 19  2  0  0  0
 19 20  1  0  0  0
 20 21  2  0  0  0
 21 22  1  0  0  0
 22 23  2  0  0  0
 23 24  1  0  0  0
 24 25  2  0  0  0
 25 26  1  0  0  0
 26 27  2  0  0  0
 13 14  1  0  0  0
 14 15  2  0  0  0
 10 16  1  0  0  0
 30 31  1  0  0  0
 31 33  1  0  0  0
 34 33  1  0  0  0
 34 35  1  0  0  0
 35 36  1  0  0  0
 36 37  1  0  0  0
 36 38  1  0  0  0
 16  1  1  0  0  0
 38 34  1  0  0  0
  9  3  1  0  0  0
 14 10  1  0  0  0
 27 18  1  0  0  0
 27 22  1  0  0  0
  1 17  1  0  0  0
 31 32  1  0  0  0
M  CHG 1   1   1
M  END
> <minimizedAffinity>
-8.28030

> <CNNscore>
0.3341062963

> <CNNaffinity>
6.6029787064

> <CNN_VS>
2.2060966492

> <CNNaffinity_variance>
0.1471042186

$$$$



 38 43  0  0  0  0  0  0  0  0999 V2000
    7.1680   -4.1861   23.9666 N   0  0  0  0  0  0  0  0  0  0  0  0
    8.2472   -4.6982   24.8738 C   0  0  0  0  0  0  0  0  0  0  0  0
    9.4538   -3.8528   25.1557 C   0  0  0  0  0  0  0  0  0  0  0  0
   10.5330   -4.3650   26.0629 C   0  0  0  0  0  0  0  0  0  0  0  0
   11.7396   -3.5196   26.3448 C   0  0  0  0  0  0  0  0  0  0  0  0
   11.8669   -2.1621   25.7195 C   0  0  0  0  0  0  0  0  0  0  0  0
   13.0736   -1.3167   26.0014 Cl  0  0  0  0  0  0  0  0  0  0  0  0
   10.7877   -1.6500   24.8123 C   0  0  0  0  0  0  0  0  0  0  0  0
    9.5812   -2.4953   24.5304 C   0  0  0  0  0  0  0  0  0  0  0  0
    8.5019   -1.9832   23.6232 C   0  0  0  0  0  0  0  0  0  0  0  0
    7.5091   -1.3410   22.7003 C   0  0  0  0  0  0  0  0  0  0  0  0
    8.0380    0.0095   22.3177 C   0  0  0  0  0  0  0  0  0  0  0  0
    9.3577    0.2020   23.0042 N   0  0  0  0  0  0  0  0  0  0  0  0
    9.6444   -1.0296   23.8111 C   0  0  0  0  0  0  0  0  0  0  0  0
   10.7036   -0.9508   24.4011 O   0  0  0  0  0  0  0  0  0  0  0  0
    7.2953   -2.8286   23.3413 C   0  0  0  0  0  0  0  0  0  0  0  0
    7.0813   -5.1092   24.3918 H   0  0  0  0  0  0  0  0  0  0  0  0
   10.2365    1.4133   22.9019 C   0  0  0  0  0  0  0  0  0  0  0  0
   11.7062    1.2543   22.6476 C   0  0  0  0  0  0  0  0  0  0  0  0
   12.5850    2.4656   22.5453 N   0  0  0  0  0  0  0  0  0  0  0  0
   11.9940    3.8359   22.6973 C   0  0  0  0  0  0  0  0  0  0  0  0
   10.5243    3.9948   22.9515 C   0  0  0  0  0  0  0  0  0  0  0  0
    9.9333    5.3652   23.1035 C   0  0  0  0  0  0  0  0  0  0  0  0
    8.4636    5.5240   23.3578 C   0  0  0  0  0  0  0  0  0  0  0  0
    7.5848    4.3127   23.4601 C   0  0  0  0  0  0  0  0  0  0  0  0
    8.1758    2.9425   23.3081 C   0  0  0  0  0  0  0  0  0  0  0  0
    9.6455    2.7835   23.0539 C   0  0  0  0  0  0  0  0  0  0  0  0
    5.9613   -5.0315   23.6847 C   0  0  0  0  0  0  0  0  0  0  0  0
    6.4907   -7.5450   24.0745 O   0  0  0  0  0  0  0  0  0  0  0  0
    5.7401   -6.3020   24.4507 C   0  0  0  0  0  0  0  0  0  0  0  0
    4.7683   -6.3295   25.5930 N   0  0  0  0  0  0  0  0  0  0  0  0
    4.2757   -5.5136   25.8399 H   0  0  0  0  0  0  0  0  0  0  0  0
    4.5471   -7.6000   26.3591 C   0  0  0  0  0  0  0  0  0  0  0  0
    3.2631   -7.8121   27.1051 C   0  0  0  0  0  0  0  0  0  0  0  0
    1.8273   -7.9992   26.7134 C   0  0  0  0  0  0  0  0  0  0  0  0
    1.4474   -8.1121   28.1600 C   0  0  0  0  0  0  0  0  0  0  0  0
    0.1634   -8.3242   28.9060 F   0  0  0  0  0  0  0  0  0  0  0  0
    2.8832   -7.9250   28.5517 C   0  0  0  0  0  0  0  0  0  0  0  0
 29 30  2  0  0  0
 30 28  1  0  0  0
  1 28  1  0  0  0
  1  2  1  0  0  0
  2  3  1  0  0  0
  3  4  2  0  0  0
  4  5  1  0  0  0
  5  6  2  0  0  0
  6  7  1  0  0  0
  6  8  1  0  0  0
  8  9  2  0  0  0
  9 10  1  0  0  0
 10 11  1  0  0  0
 11 12  1  0  0  0
 12 13  1  0  0  0
 13 18  1  0  0  0
 18 19  2  0  0  0
 19 20  1  0  0  0
 20 21  2  0  0  0
 21 22  1  0  0  0
 22 23  2  0  0  0
 23 24  1  0  0  0
 24 25  2  0  0  0
 25 26  1  0  0  0
 26 27  2  0  0  0
 13 14  1  0  0  0
 14 15  2  0  0  0
 10 16  1  0  0  0
 30 31  1  0  0  0
 31 33  1  0  0  0
 34 33  1  0  0  0
 34 35  1  0  0  0
 35 36  1  0  0  0
 36 37  1  0  0  0
 36 38  1  0  0  0
 16  1  1  0  0  0
 38 34  1  0  0  0
  9  3  1  0  0  0
 14 10  1  0  0  0
 27 18  1  0  0  0
 27 22  1  0  0  0
  1 17  1  0  0  0
 31 32  1  0  0  0
M  CHG 1   1   1
M  END
> <minimizedAffinity>
-7.56470

> <CNNscore>
0.3225221932

> <CNNaffinity>
6.5705680847

> <CNN_VS>
2.1191539764

> <CNNaffinity_variance>
0.3007708788

$$$$
