


 38 43  0  0  0  0  0  0  0  0999 V2000
   -7.3360   -1.2254  -24.0278 N   0  0  0  0  0  0  0  0  0  0  0  0
   -8.3663   -2.2751  -23.7338 C   0  0  0  0  0  0  0  0  0  0  0  0
   -9.8019   -1.8843  -23.5427 C   0  0  0  0  0  0  0  0  0  0  0  0
  -10.8322   -2.9340  -23.2487 C   0  0  0  0  0  0  0  0  0  0  0  0
  -12.2677   -2.5431  -23.0576 C   0  0  0  0  0  0  0  0  0  0  0  0
  -12.6729   -1.1026  -23.1605 C   0  0  0  0  0  0  0  0  0  0  0  0
  -14.1084   -0.7117  -22.9694 Cl  0  0  0  0  0  0  0  0  0  0  0  0
  -11.6425   -0.0528  -23.4545 C   0  0  0  0  0  0  0  0  0  0  0  0
  -10.2071   -0.4437  -23.6456 C   0  0  0  0  0  0  0  0  0  0  0  0
   -9.1767    0.6060  -23.9397 C   0  0  0  0  0  0  0  0  0  0  0  0
   -8.2631    1.7606  -24.2268 C   0  0  0  0  0  0  0  0  0  0  0  0
   -9.0883    3.0131  -24.2381 C   0  0  0  0  0  0  0  0  0  0  0  0
  -10.5120    2.6327  -23.9580 N   0  0  0  0  0  0  0  0  0  0  0  0
  -10.5666    1.1451  -23.7736 C   0  0  0  0  0  0  0  0  0  0  0  0
  -11.6941    0.7563  -23.5414 O   0  0  0  0  0  0  0  0  0  0  0  0
   -7.7412    0.2152  -24.1308 C   0  0  0  0  0  0  0  0  0  0  0  0
   -7.0605   -2.2050  -23.9579 H   0  0  0  0  0  0  0  0  0  0  0  0
  -11.6766    3.5745  -23.8766 C   0  0  0  0  0  0  0  0  0  0  0  0
  -12.4727    3.6751  -22.6093 C   0  0  0  0  0  0  0  0  0  0  0  0
  -13.6373    4.6169  -22.5279 N   0  0  0  0  0  0  0  0  0  0  0  0
  -14.0058    5.4582  -23.7139 C   0  0  0  0  0  0  0  0  0  0  0  0
  -13.2097    5.3576  -24.9812 C   0  0  0  0  0  0  0  0  0  0  0  0
  -13.5783    6.1989  -26.1672 C   0  0  0  0  0  0  0  0  0  0  0  0
  -12.7821    6.0982  -27.4345 C   0  0  0  0  0  0  0  0  0  0  0  0
  -11.6175    5.1564  -27.5159 C   0  0  0  0  0  0  0  0  0  0  0  0
  -11.2490    4.3151  -26.3299 C   0  0  0  0  0  0  0  0  0  0  0  0
  -12.0451    4.4157  -25.0626 C   0  0  0  0  0  0  0  0  0  0  0  0
   -5.9004   -1.6162  -24.2190 C   0  0  0  0  0  0  0  0  0  0  0  0
   -5.3055   -2.3593  -26.6364 O   0  0  0  0  0  0  0  0  0  0  0  0
   -5.5410   -2.6978  -25.1942 C   0  0  0  0  0  0  0  0  0  0  0  0
   -5.4171   -4.1178  -24.7271 N   0  0  0  0  0  0  0  0  0  0  0  0
   -5.5717   -4.3399  -23.7806 H   0  0  0  0  0  0  0  0  0  0  0  0
   -5.0577   -5.1994  -25.7024 C   0  0  0  0  0  0  0  0  0  0  0  0
   -6.0880   -5.7168  -26.6618 C   0  0  0  0  0  0  0  0  0  0  0  0
   -6.1265   -5.9765  -28.1387 C   0  0  0  0  0  0  0  0  0  0  0  0
   -7.5452   -6.4486  -28.0187 C   0  0  0  0  0  0  0  0  0  0  0  0
   -8.5755   -6.9660  -28.9783 F   0  0  0  0  0  0  0  0  0  0  0  0
   -7.5067   -6.1890  -26.5419 C   0  0  0  0  0  0  0  0  0  0  0  0
 29 30  2  0  0  0
 30 28  1  0  0  0
  1 28  1  0  0  0
  1  2  1  0  0  0
  2  3  1  0  0  0
  3  4  2  0  0  0
  4  5  1  0  0  0
  5  6  2  0  0  0
  6  7  1  0  0  0
  6  8  1  0  0  0
  8  9  2  0  0  0
  9 10  1  0  0  0
 10 11  1  0  0  0
 11 12  1  0  0  0
 12 13  1  0  0  0
 13 18  1  0  0  0
 18 19  2  0  0  0
 19 20  1  0  0  0
 20 21  2  0  0  0
 21 22  1  0  0  0
 22 23  2  0  0  0
 23 24  1  0  0  0
 24 25  2  0  0  0
 25 26  1  0  0  0
 26 27  2  0  0  0
 13 14  1  0  0  0
 14 15  2  0  0  0
 10 16  1  0  0  0
 30 31  1  0  0  0
 31 33  1  0  0  0
 34 33  1  0  0  0
 34 35  1  0  0  0
 35 36  1  0  0  0
 36 37  1  0  0  0
 36 38  1  0  0  0
 16  1  1  0  0  0
 38 34  1  0  0  0
  9  3  1  0  0  0
 14 10  1  0  0  0
 27 18  1  0  0  0
 27 22  1  0  0  0
  1 17  1  0  0  0
 31 32  1  0  0  0
M  CHG 1   1   1
M  END
> <minimizedAffinity>
-7.41585

> <CNNscore>
0.7675358057

> <CNNaffinity>
6.7050676346

> <CNN_VS>
5.1463794708

> <CNNaffinity_variance>
0.3373568654

$$$$



 38 43  0  0  0  0  0  0  0  0999 V2000
   -7.7089   -2.4260  -22.7704 N   0  0  0  0  0  0  0  0  0  0  0  0
   -9.0669   -2.9698  -22.4384 C   0  0  0  0  0  0  0  0  0  0  0  0
  -10.2943   -2.1692  -22.7589 C   0  0  0  0  0  0  0  0  0  0  0  0
  -11.6522   -2.7130  -22.4269 C   0  0  0  0  0  0  0  0  0  0  0  0
  -12.8795   -1.9124  -22.7474 C   0  0  0  0  0  0  0  0  0  0  0  0
  -12.7489   -0.5680  -23.3998 C   0  0  0  0  0  0  0  0  0  0  0  0
  -13.9763    0.2326  -23.7202 Cl  0  0  0  0  0  0  0  0  0  0  0  0
  -11.3910   -0.0242  -23.7317 C   0  0  0  0  0  0  0  0  0  0  0  0
  -10.1636   -0.8248  -23.4113 C   0  0  0  0  0  0  0  0  0  0  0  0
   -8.8056   -0.2810  -23.7432 C   0  0  0  0  0  0  0  0  0  0  0  0
   -7.5213    0.3893  -24.1321 C   0  0  0  0  0  0  0  0  0  0  0  0
   -7.8583    1.7137  -24.7505 C   0  0  0  0  0  0  0  0  0  0  0  0
   -9.3509    1.8619  -24.7438 N   0  0  0  0  0  0  0  0  0  0  0  0
   -9.9364    0.6291  -24.1213 C   0  0  0  0  0  0  0  0  0  0  0  0
  -11.1499    0.6730  -24.0791 O   0  0  0  0  0  0  0  0  0  0  0  0
   -7.5783   -1.0816  -23.4228 C   0  0  0  0  0  0  0  0  0  0  0  0
   -7.7977   -3.3401  -22.3267 H   0  0  0  0  0  0  0  0  0  0  0  0
  -10.1226    3.0366  -25.2677 C   0  0  0  0  0  0  0  0  0  0  0  0
   -9.8386    3.5684  -26.6413 C   0  0  0  0  0  0  0  0  0  0  0  0
  -10.6103    4.7431  -27.1652 N   0  0  0  0  0  0  0  0  0  0  0  0
  -11.6660    5.3861  -26.3155 C   0  0  0  0  0  0  0  0  0  0  0  0
  -11.9500    4.8544  -24.9419 C   0  0  0  0  0  0  0  0  0  0  0  0
  -13.0058    5.4975  -24.0922 C   0  0  0  0  0  0  0  0  0  0  0  0
  -13.2897    4.9657  -22.7187 C   0  0  0  0  0  0  0  0  0  0  0  0
  -12.5180    3.7910  -22.1948 C   0  0  0  0  0  0  0  0  0  0  0  0
  -11.4623    3.1480  -23.0445 C   0  0  0  0  0  0  0  0  0  0  0  0
  -11.1783    3.6797  -24.4180 C   0  0  0  0  0  0  0  0  0  0  0  0
   -6.4815   -3.2265  -22.4499 C   0  0  0  0  0  0  0  0  0  0  0  0
   -7.6520   -5.3755  -23.3227 O   0  0  0  0  0  0  0  0  0  0  0  0
   -6.4376   -4.6918  -22.7678 C   0  0  0  0  0  0  0  0  0  0  0  0
   -5.1795   -5.4733  -22.5308 N   0  0  0  0  0  0  0  0  0  0  0  0
   -4.3825   -5.0245  -22.1666 H   0  0  0  0  0  0  0  0  0  0  0  0
   -5.1355   -6.9386  -22.8486 C   0  0  0  0  0  0  0  0  0  0  0  0
   -4.9126   -7.3934  -24.2605 C   0  0  0  0  0  0  0  0  0  0  0  0
   -5.6447   -7.2214  -25.5584 C   0  0  0  0  0  0  0  0  0  0  0  0
   -4.5973   -8.0366  -26.2572 C   0  0  0  0  0  0  0  0  0  0  0  0
   -4.3744   -8.4914  -27.6692 F   0  0  0  0  0  0  0  0  0  0  0  0
   -3.8652   -8.2086  -24.9593 C   0  0  0  0  0  0  0  0  0  0  0  0
 29 30  2  0  0  0
 30 28  1  0  0  0
  1 28  1  0  0  0
  1  2  1  0  0  0
  2  3  1  0  0  0
  3  4  2  0  0  0
  4  5  1  0  0  0
  5  6  2  0  0  0
  6  7  1  0  0  0
  6  8  1  0  0  0
  8  9  2  0  0  0
  9 10  1  0  0  0
 10 11  1  0  0  0
 11 12  1  0  0  0
 12 13  1  0  0  0
 13 18  1  0  0  0
 18 19  2  0  0  0
 19 20  1  0  0  0
 20 21  2  0  0  0
 21 22  1  0  0  0
 22 23  2  0  0  0
 23 24  1  0  0  0
 24 25  2  0  0  0
 25 26  1  0  0  0
 26 27  2  0  0  0
 13 14  1  0  0  0
 14 15  2  0  0  0
 10 16  1  0  0  0
 30 31  1  0  0  0
 31 33  1  0  0  0
 34 33  1  0  0  0
 34 35  1  0  0  0
 35 36  1  0  0  0
 36 37  1  0  0  0
 36 38  1  0  0  0
 16  1  1  0  0  0
 38 34  1  0  0  0
  9  3  1  0  0  0
 14 10  1  0  0  0
 27 18  1  0  0  0
 27 22  1  0  0  0
  1 17  1  0  0  0
 31 32  1  0  0  0
M  CHG 1   1   1
M  END
> <minimizedAffinity>
-7.64305

> <CNNscore>
0.5620833039

> <CNNaffinity>
6.4487137794

> <CNN_VS>
3.6247143745

> <CNNaffinity_variance>
0.1581794024

$$$$



 38 43  0  0  0  0  0  0  0  0999 V2000
   -7.1312   -1.1360  -21.5385 N   0  0  0  0  0  0  0  0  0  0  0  0
   -8.3334   -2.0330  -21.5439 C   0  0  0  0  0  0  0  0  0  0  0  0
   -9.5833   -1.6078  -22.2560 C   0  0  0  0  0  0  0  0  0  0  0  0
  -10.7855   -2.5048  -22.2614 C   0  0  0  0  0  0  0  0  0  0  0  0
  -12.0353   -2.0795  -22.9734 C   0  0  0  0  0  0  0  0  0  0  0  0
  -12.0830   -0.7573  -23.6801 C   0  0  0  0  0  0  0  0  0  0  0  0
  -13.3329   -0.3321  -24.3922 Cl  0  0  0  0  0  0  0  0  0  0  0  0
  -10.8808    0.1397  -23.6747 C   0  0  0  0  0  0  0  0  0  0  0  0
   -9.6310   -0.2855  -22.9627 C   0  0  0  0  0  0  0  0  0  0  0  0
   -8.4287    0.6115  -22.9573 C   0  0  0  0  0  0  0  0  0  0  0  0
   -7.3114    1.6091  -23.0375 C   0  0  0  0  0  0  0  0  0  0  0  0
   -7.7941    2.7825  -23.8376 C   0  0  0  0  0  0  0  0  0  0  0  0
   -9.2098    2.5101  -24.2519 N   0  0  0  0  0  0  0  0  0  0  0  0
   -9.6020    1.1684  -23.7078 C   0  0  0  0  0  0  0  0  0  0  0  0
  -10.7433    0.8736  -24.0026 O   0  0  0  0  0  0  0  0  0  0  0  0
   -7.1789    0.1863  -22.2452 C   0  0  0  0  0  0  0  0  0  0  0  0
   -7.0988   -2.0351  -21.0580 H   0  0  0  0  0  0  0  0  0  0  0  0
  -10.0805    3.4197  -25.0670 C   0  0  0  0  0  0  0  0  0  0  0  0
   -9.7717    3.6534  -26.5162 C   0  0  0  0  0  0  0  0  0  0  0  0
  -10.6424    4.5630  -27.3314 N   0  0  0  0  0  0  0  0  0  0  0  0
  -11.8219    5.2388  -26.6974 C   0  0  0  0  0  0  0  0  0  0  0  0
  -12.1307    5.0051  -25.2483 C   0  0  0  0  0  0  0  0  0  0  0  0
  -13.3103    5.6810  -24.6143 C   0  0  0  0  0  0  0  0  0  0  0  0
  -13.6191    5.4472  -23.1652 C   0  0  0  0  0  0  0  0  0  0  0  0
  -12.7484    4.5376  -22.3500 C   0  0  0  0  0  0  0  0  0  0  0  0
  -11.5689    3.8618  -22.9839 C   0  0  0  0  0  0  0  0  0  0  0  0
  -11.2600    4.0955  -24.4331 C   0  0  0  0  0  0  0  0  0  0  0  0
   -5.8813   -1.5612  -20.8264 C   0  0  0  0  0  0  0  0  0  0  0  0
   -5.1442   -3.5100  -19.2745 O   0  0  0  0  0  0  0  0  0  0  0  0
   -5.5960   -3.0189  -20.6179 C   0  0  0  0  0  0  0  0  0  0  0  0
   -5.7624   -3.9855  -21.7527 N   0  0  0  0  0  0  0  0  0  0  0  0
   -6.0589   -3.6632  -22.6344 H   0  0  0  0  0  0  0  0  0  0  0  0
   -5.4770   -5.4434  -21.5442 C   0  0  0  0  0  0  0  0  0  0  0  0
   -5.2408   -6.3377  -22.7250 C   0  0  0  0  0  0  0  0  0  0  0  0
   -4.0338   -6.9704  -23.3517 C   0  0  0  0  0  0  0  0  0  0  0  0
   -4.9068   -7.6026  -24.3949 C   0  0  0  0  0  0  0  0  0  0  0  0
   -4.6705   -8.4970  -25.5757 F   0  0  0  0  0  0  0  0  0  0  0  0
   -6.1138   -6.9698  -23.7682 C   0  0  0  0  0  0  0  0  0  0  0  0
 29 30  2  0  0  0
 30 28  1  0  0  0
  1 28  1  0  0  0
  1  2  1  0  0  0
  2  3  1  0  0  0
  3  4  2  0  0  0
  4  5  1  0  0  0
  5  6  2  0  0  0
  6  7  1  0  0  0
  6  8  1  0  0  0
  8  9  2  0  0  0
  9 10  1  0  0  0
 10 11  1  0  0  0
 11 12  1  0  0  0
 12 13  1  0  0  0
 13 18  1  0  0  0
 18 19  2  0  0  0
 19 20  1  0  0  0
 20 21  2  0  0  0
 21 22  1  0  0  0
 22 23  2  0  0  0
 23 24  1  0  0  0
 24 25  2  0  0  0
 25 26  1  0  0  0
 26 27  2  0  0  0
 13 14  1  0  0  0
 14 15  2  0  0  0
 10 16  1  0  0  0
 30 31  1  0  0  0
 31 33  1  0  0  0
 34 33  1  0  0  0
 34 35  1  0  0  0
 35 36  1  0  0  0
 36 37  1  0  0  0
 36 38  1  0  0  0
 16  1  1  0  0  0
 38 34  1  0  0  0
  9  3  1  0  0  0
 14 10  1  0  0  0
 27 18  1  0  0  0
 27 22  1  0  0  0
  1 17  1  0  0  0
 31 32  1  0  0  0
M  CHG 1   1   1
M  END
> <minimizedAffinity>
-8.75476

> <CNNscore>
0.4063641727

> <CNNaffinity>
6.3361892700

> <CNN_VS>
2.5748002529

> <CNNaffinity_variance>
0.1474387944

$$$$



 38 43  0  0  0  0  0  0  0  0999 V2000
   -7.0480   -0.8397  -21.2616 N   0  0  0  0  0  0  0  0  0  0  0  0
   -8.1868   -1.8122  -21.3455 C   0  0  0  0  0  0  0  0  0  0  0  0
   -9.4214   -1.4566  -22.1198 C   0  0  0  0  0  0  0  0  0  0  0  0
  -10.5602   -2.4292  -22.2037 C   0  0  0  0  0  0  0  0  0  0  0  0
  -11.7947   -2.0735  -22.9780 C   0  0  0  0  0  0  0  0  0  0  0  0
  -11.8903   -0.7454  -23.6684 C   0  0  0  0  0  0  0  0  0  0  0  0
  -13.1248   -0.3897  -24.4428 Cl  0  0  0  0  0  0  0  0  0  0  0  0
  -10.7514    0.2272  -23.5846 C   0  0  0  0  0  0  0  0  0  0  0  0
   -9.5170   -0.1284  -22.8103 C   0  0  0  0  0  0  0  0  0  0  0  0
   -8.3780    0.8441  -22.7264 C   0  0  0  0  0  0  0  0  0  0  0  0
   -7.3256    1.9130  -22.7315 C   0  0  0  0  0  0  0  0  0  0  0  0
   -7.8400    3.0662  -23.5413 C   0  0  0  0  0  0  0  0  0  0  0  0
   -9.2102    2.7100  -24.0367 N   0  0  0  0  0  0  0  0  0  0  0  0
   -9.5427    1.3367  -23.5331 C   0  0  0  0  0  0  0  0  0  0  0  0
  -10.6446    0.9739  -23.8945 O   0  0  0  0  0  0  0  0  0  0  0  0
   -7.1436    0.4885  -21.9521 C   0  0  0  0  0  0  0  0  0  0  0  0
   -6.9830   -1.7429  -20.7921 H   0  0  0  0  0  0  0  0  0  0  0  0
  -10.0930    3.5751  -24.8865 C   0  0  0  0  0  0  0  0  0  0  0  0
   -9.7567    3.7998  -26.3310 C   0  0  0  0  0  0  0  0  0  0  0  0
  -10.6395    4.6649  -27.1808 N   0  0  0  0  0  0  0  0  0  0  0  0
  -11.8586    5.3054  -26.5862 C   0  0  0  0  0  0  0  0  0  0  0  0
  -12.1949    5.0807  -25.1417 C   0  0  0  0  0  0  0  0  0  0  0  0
  -13.4140    5.7213  -24.5471 C   0  0  0  0  0  0  0  0  0  0  0  0
  -13.7502    5.4965  -23.1026 C   0  0  0  0  0  0  0  0  0  0  0  0
  -12.8675    4.6314  -22.2528 C   0  0  0  0  0  0  0  0  0  0  0  0
  -11.6484    3.9909  -22.8474 C   0  0  0  0  0  0  0  0  0  0  0  0
  -11.3121    4.2156  -24.2919 C   0  0  0  0  0  0  0  0  0  0  0  0
   -5.8134   -1.1953  -20.4873 C   0  0  0  0  0  0  0  0  0  0  0  0
   -5.5008    0.1933  -18.3138 O   0  0  0  0  0  0  0  0  0  0  0  0
   -5.0816   -0.1377  -19.7155 C   0  0  0  0  0  0  0  0  0  0  0  0
   -3.9305    0.5890  -20.3454 N   0  0  0  0  0  0  0  0  0  0  0  0
   -3.6553    0.3718  -21.2653 H   0  0  0  0  0  0  0  0  0  0  0  0
   -3.1985    1.6467  -19.5736 C   0  0  0  0  0  0  0  0  0  0  0  0
   -1.9706    2.2839  -20.1535 C   0  0  0  0  0  0  0  0  0  0  0  0
   -1.6952    3.5236  -20.9518 C   0  0  0  0  0  0  0  0  0  0  0  0
   -0.2341    3.1849  -20.9737 C   0  0  0  0  0  0  0  0  0  0  0  0
    0.9938    3.8221  -21.5536 F   0  0  0  0  0  0  0  0  0  0  0  0
   -0.5095    1.9452  -20.1754 C   0  0  0  0  0  0  0  0  0  0  0  0
 29 30  2  0  0  0
 30 28  1  0  0  0
  1 28  1  0  0  0
  1  2  1  0  0  0
  2  3  1  0  0  0
  3  4  2  0  0  0
  4  5  1  0  0  0
  5  6  2  0  0  0
  6  7  1  0  0  0
  6  8  1  0  0  0
  8  9  2  0  0  0
  9 10  1  0  0  0
 10 11  1  0  0  0
 11 12  1  0  0  0
 12 13  1  0  0  0
 13 18  1  0  0  0
 18 19  2  0  0  0
 19 20  1  0  0  0
 20 21  2  0  0  0
 21 22  1  0  0  0
 22 23  2  0  0  0
 23 24  1  0  0  0
 24 25  2  0  0  0
 25 26  1  0  0  0
 26 27  2  0  0  0
 13 14  1  0  0  0
 14 15  2  0  0  0
 10 16  1  0  0  0
 30 31  1  0  0  0
 31 33  1  0  0  0
 34 33  1  0  0  0
 34 35  1  0  0  0
 35 36  1  0  0  0
 36 37  1  0  0  0
 36 38  1  0  0  0
 16  1  1  0  0  0
 38 34  1  0  0  0
  9  3  1  0  0  0
 14 10  1  0  0  0
 27 18  1  0  0  0
 27 22  1  0  0  0
  1 17  1  0  0  0
 31 32  1  0  0  0
M  CHG 1   1   1
M  END
> <minimizedAffinity>
-8.16587

> <CNNscore>
0.2586247325

> <CNNaffinity>
5.9872832298

> <CNN_VS>
1.5484595299

> <CNNaffinity_variance>
0.0930351987

$$$$



 38 43  0  0  0  0  0  0  0  0999 V2000
   -7.0385   -1.1258  -21.4309 N   0  0  0  0  0  0  0  0  0  0  0  0
   -8.2251   -2.0365  -21.5428 C   0  0  0  0  0  0  0  0  0  0  0  0
   -9.4822   -1.5529  -22.2031 C   0  0  0  0  0  0  0  0  0  0  0  0
  -10.6687   -2.4637  -22.3150 C   0  0  0  0  0  0  0  0  0  0  0  0
  -11.9257   -1.9800  -22.9753 C   0  0  0  0  0  0  0  0  0  0  0  0
  -11.9961   -0.5857  -23.5237 C   0  0  0  0  0  0  0  0  0  0  0  0
  -13.2532   -0.1020  -24.1841 Cl  0  0  0  0  0  0  0  0  0  0  0  0
  -10.8096    0.3251  -23.4118 C   0  0  0  0  0  0  0  0  0  0  0  0
   -9.5526   -0.1585  -22.7515 C   0  0  0  0  0  0  0  0  0  0  0  0
   -8.3659    0.7522  -22.6396 C   0  0  0  0  0  0  0  0  0  0  0  0
   -7.2660    1.7713  -22.6013 C   0  0  0  0  0  0  0  0  0  0  0  0
   -7.7689    3.0213  -23.2606 C   0  0  0  0  0  0  0  0  0  0  0  0
   -9.1797    2.7747  -23.7065 N   0  0  0  0  0  0  0  0  0  0  0  0
   -9.5487    1.3723  -23.3227 C   0  0  0  0  0  0  0  0  0  0  0  0
  -10.6847    1.0943  -23.6520 O   0  0  0  0  0  0  0  0  0  0  0  0
   -7.1089    0.2686  -21.9793 C   0  0  0  0  0  0  0  0  0  0  0  0
   -6.9906   -2.0740  -21.0580 H   0  0  0  0  0  0  0  0  0  0  0  0
  -10.0660    3.7578  -24.4122 C   0  0  0  0  0  0  0  0  0  0  0  0
  -10.9908    4.6356  -23.6222 C   0  0  0  0  0  0  0  0  0  0  0  0
  -11.8770    5.6187  -24.3279 N   0  0  0  0  0  0  0  0  0  0  0  0
  -11.8385    5.7240  -25.8237 C   0  0  0  0  0  0  0  0  0  0  0  0
  -10.9136    4.8462  -26.6137 C   0  0  0  0  0  0  0  0  0  0  0  0
  -10.8750    4.9515  -28.1096 C   0  0  0  0  0  0  0  0  0  0  0  0
   -9.9502    4.0736  -28.8996 C   0  0  0  0  0  0  0  0  0  0  0  0
   -9.0639    3.0905  -28.1938 C   0  0  0  0  0  0  0  0  0  0  0  0
   -9.1025    2.9853  -26.6980 C   0  0  0  0  0  0  0  0  0  0  0  0
  -10.0274    3.8631  -25.9080 C   0  0  0  0  0  0  0  0  0  0  0  0
   -5.7814   -1.6094  -20.7706 C   0  0  0  0  0  0  0  0  0  0  0  0
   -5.1088   -3.6090  -19.2543 O   0  0  0  0  0  0  0  0  0  0  0  0
   -5.5485   -3.0798  -20.5872 C   0  0  0  0  0  0  0  0  0  0  0  0
   -5.7552   -4.0209  -21.7368 N   0  0  0  0  0  0  0  0  0  0  0  0
   -6.0437   -3.6735  -22.6116 H   0  0  0  0  0  0  0  0  0  0  0  0
   -5.5222   -5.4914  -21.5534 C   0  0  0  0  0  0  0  0  0  0  0  0
   -5.2530   -6.3623  -22.7446 C   0  0  0  0  0  0  0  0  0  0  0  0
   -6.0963   -6.9729  -23.8244 C   0  0  0  0  0  0  0  0  0  0  0  0
   -4.8722   -7.5940  -24.4292 C   0  0  0  0  0  0  0  0  0  0  0  0
   -4.6030   -8.4650  -25.6205 F   0  0  0  0  0  0  0  0  0  0  0  0
   -4.0289   -6.9834  -23.3495 C   0  0  0  0  0  0  0  0  0  0  0  0
 29 30  2  0  0  0
 30 28  1  0  0  0
  1 28  1  0  0  0
  1  2  1  0  0  0
  2  3  1  0  0  0
  3  4  2  0  0  0
  4  5  1  0  0  0
  5  6  2  0  0  0
  6  7  1  0  0  0
  6  8  1  0  0  0
  8  9  2  0  0  0
  9 10  1  0  0  0
 10 11  1  0  0  0
 11 12  1  0  0  0
 12 13  1  0  0  0
 13 18  1  0  0  0
 18 19  2  0  0  0
 19 20  1  0  0  0
 20 21  2  0  0  0
 21 22  1  0  0  0
 22 23  2  0  0  0
 23 24  1  0  0  0
 24 25  2  0  0  0
 25 26  1  0  0  0
 26 27  2  0  0  0
 13 14  1  0  0  0
 14 15  2  0  0  0
 10 16  1  0  0  0
 30 31  1  0  0  0
 31 33  1  0  0  0
 34 33  1  0  0  0
 34 35  1  0  0  0
 35 36  1  0  0  0
 36 37  1  0  0  0
 36 38  1  0  0  0
 16  1  1  0  0  0
 38 34  1  0  0  0
  9  3  1  0  0  0
 14 10  1  0  0  0
 27 18  1  0  0  0
 27 22  1  0  0  0
  1 17  1  0  0  0
 31 32  1  0  0  0
M  CHG 1   1   1
M  END
> <minimizedAffinity>
-8.68235

> <CNNscore>
0.1980952621

> <CNNaffinity>
6.0070376396

> <CNN_VS>
1.1899657249

> <CNNaffinity_variance>
0.2056573927

$$$$



 38 43  0  0  0  0  0  0  0  0999 V2000
   -7.6083   -3.0415  -22.7450 N   0  0  0  0  0  0  0  0  0  0  0  0
   -9.0832   -3.1951  -22.5190 C   0  0  0  0  0  0  0  0  0  0  0  0
  -10.0182   -2.0807  -22.8850 C   0  0  0  0  0  0  0  0  0  0  0  0
  -11.4930   -2.2343  -22.6590 C   0  0  0  0  0  0  0  0  0  0  0  0
  -12.4279   -1.1199  -23.0250 C   0  0  0  0  0  0  0  0  0  0  0  0
  -11.8880    0.1482  -23.6169 C   0  0  0  0  0  0  0  0  0  0  0  0
  -12.8230    1.2626  -23.9829 Cl  0  0  0  0  0  0  0  0  0  0  0  0
  -10.4131    0.3018  -23.8429 C   0  0  0  0  0  0  0  0  0  0  0  0
   -9.4782   -0.8126  -23.4770 C   0  0  0  0  0  0  0  0  0  0  0  0
   -8.0032   -0.6590  -23.7029 C   0  0  0  0  0  0  0  0  0  0  0  0
   -6.5603   -0.3623  -23.9855 C   0  0  0  0  0  0  0  0  0  0  0  0
   -6.4767    1.0151  -24.5735 C   0  0  0  0  0  0  0  0  0  0  0  0
   -7.8680    1.5698  -24.6543 N   0  0  0  0  0  0  0  0  0  0  0  0
   -8.8114    0.5352  -24.1163 C   0  0  0  0  0  0  0  0  0  0  0  0
   -9.9662    0.9118  -24.1481 O   0  0  0  0  0  0  0  0  0  0  0  0
   -7.0683   -1.7734  -23.3370 C   0  0  0  0  0  0  0  0  0  0  0  0
   -7.9755   -3.9038  -22.3425 H   0  0  0  0  0  0  0  0  0  0  0  0
   -8.2490    2.9218  -25.1807 C   0  0  0  0  0  0  0  0  0  0  0  0
   -8.8914    3.0474  -26.5303 C   0  0  0  0  0  0  0  0  0  0  0  0
   -9.2724    4.3993  -27.0567 N   0  0  0  0  0  0  0  0  0  0  0  0
   -9.0110    5.6256  -26.2334 C   0  0  0  0  0  0  0  0  0  0  0  0
   -8.3686    5.5000  -24.8838 C   0  0  0  0  0  0  0  0  0  0  0  0
   -8.1071    6.7264  -24.0605 C   0  0  0  0  0  0  0  0  0  0  0  0
   -7.4647    6.6007  -22.7108 C   0  0  0  0  0  0  0  0  0  0  0  0
   -7.0838    5.2487  -22.1844 C   0  0  0  0  0  0  0  0  0  0  0  0
   -7.3452    4.0224  -23.0077 C   0  0  0  0  0  0  0  0  0  0  0  0
   -7.9876    4.1481  -24.3574 C   0  0  0  0  0  0  0  0  0  0  0  0
   -6.6733   -4.1559  -22.3791 C   0  0  0  0  0  0  0  0  0  0  0  0
   -7.4824   -6.4945  -23.1703 O   0  0  0  0  0  0  0  0  0  0  0  0
   -6.5291   -5.3422  -23.2857 C   0  0  0  0  0  0  0  0  0  0  0  0
   -5.4317   -5.3760  -24.3077 N   0  0  0  0  0  0  0  0  0  0  0  0
   -4.8061   -4.6197  -24.3834 H   0  0  0  0  0  0  0  0  0  0  0  0
   -5.2875   -6.5623  -25.2143 C   0  0  0  0  0  0  0  0  0  0  0  0
   -6.0694   -6.6287  -26.4926 C   0  0  0  0  0  0  0  0  0  0  0  0
   -7.5274   -6.6316  -26.8453 C   0  0  0  0  0  0  0  0  0  0  0  0
   -7.1753   -6.7226  -28.3005 C   0  0  0  0  0  0  0  0  0  0  0  0
   -7.9573   -6.7890  -29.5789 F   0  0  0  0  0  0  0  0  0  0  0  0
   -5.7173   -6.7198  -27.9479 C   0  0  0  0  0  0  0  0  0  0  0  0
 29 30  2  0  0  0
 30 28  1  0  0  0
  1 28  1  0  0  0
  1  2  1  0  0  0
  2  3  1  0  0  0
  3  4  2  0  0  0
  4  5  1  0  0  0
  5  6  2  0  0  0
  6  7  1  0  0  0
  6  8  1  0  0  0
  8  9  2  0  0  0
  9 10  1  0  0  0
 10 11  1  0  0  0
 11 12  1  0  0  0
 12 13  1  0  0  0
 13 18  1  0  0  0
 18 19  2  0  0  0
 19 20  1  0  0  0
 20 21  2  0  0  0
 21 22  1  0  0  0
 22 23  2  0  0  0
 23 24  1  0  0  0
 24 25  2  0  0  0
 25 26  1  0  0  0
 26 27  2  0  0  0
 13 14  1  0  0  0
 14 15  2  0  0  0
 10 16  1  0  0  0
 30 31  1  0  0  0
 31 33  1  0  0  0
 34 33  1  0  0  0
 34 35  1  0  0  0
 35 36  1  0  0  0
 36 37  1  0  0  0
 36 38  1  0  0  0
 16  1  1  0  0  0
 38 34  1  0  0  0
  9  3  1  0  0  0
 14 10  1  0  0  0
 27 18  1  0  0  0
 27 22  1  0  0  0
  1 17  1  0  0  0
 31 32  1  0  0  0
M  CHG 1   1   1
M  END
> <minimizedAffinity>
-6.88216

> <CNNscore>
0.1664655209

> <CNNaffinity>
5.8638963699

> <CNN_VS>
0.9761365652

> <CNNaffinity_variance>
0.2491479218

$$$$



 38 43  0  0  0  0  0  0  0  0999 V2000
   -7.0974   -1.0039  -21.3680 N   0  0  0  0  0  0  0  0  0  0  0  0
   -8.2400   -1.9626  -21.5270 C   0  0  0  0  0  0  0  0  0  0  0  0
   -9.4971   -1.5232  -22.2176 C   0  0  0  0  0  0  0  0  0  0  0  0
  -10.6398   -2.4818  -22.3766 C   0  0  0  0  0  0  0  0  0  0  0  0
  -11.8967   -2.0425  -23.0671 C   0  0  0  0  0  0  0  0  0  0  0  0
  -12.0111   -0.6445  -23.5987 C   0  0  0  0  0  0  0  0  0  0  0  0
  -13.2681   -0.2051  -24.2893 Cl  0  0  0  0  0  0  0  0  0  0  0  0
  -10.8684    0.3141  -23.4397 C   0  0  0  0  0  0  0  0  0  0  0  0
   -9.6114   -0.1252  -22.7491 C   0  0  0  0  0  0  0  0  0  0  0  0
   -8.4687    0.8334  -22.5901 C   0  0  0  0  0  0  0  0  0  0  0  0
   -7.4151    1.8977  -22.5058 C   0  0  0  0  0  0  0  0  0  0  0  0
   -7.9519    3.1346  -23.1629 C   0  0  0  0  0  0  0  0  0  0  0  0
   -9.3374    2.8348  -23.6534 N   0  0  0  0  0  0  0  0  0  0  0  0
   -9.6567    1.4126  -23.2994 C   0  0  0  0  0  0  0  0  0  0  0  0
  -10.7698    1.0914  -23.6657 O   0  0  0  0  0  0  0  0  0  0  0  0
   -7.2117    0.3941  -21.8996 C   0  0  0  0  0  0  0  0  0  0  0  0
   -7.0196   -1.9546  -21.0065 H   0  0  0  0  0  0  0  0  0  0  0  0
  -10.2442    3.7896  -24.3717 C   0  0  0  0  0  0  0  0  0  0  0  0
  -11.2156    4.6290  -23.5959 C   0  0  0  0  0  0  0  0  0  0  0  0
  -12.1225    5.5837  -24.3143 N   0  0  0  0  0  0  0  0  0  0  0  0
  -12.0580    5.6991  -25.8084 C   0  0  0  0  0  0  0  0  0  0  0  0
  -11.0866    4.8597  -26.5842 C   0  0  0  0  0  0  0  0  0  0  0  0
  -11.0220    4.9751  -28.0784 C   0  0  0  0  0  0  0  0  0  0  0  0
  -10.0506    4.1357  -28.8541 C   0  0  0  0  0  0  0  0  0  0  0  0
   -9.1437    3.1810  -28.1358 C   0  0  0  0  0  0  0  0  0  0  0  0
   -9.2083    3.0656  -26.6417 C   0  0  0  0  0  0  0  0  0  0  0  0
  -10.1797    3.9050  -25.8659 C   0  0  0  0  0  0  0  0  0  0  0  0
   -5.8403   -1.4433  -20.6774 C   0  0  0  0  0  0  0  0  0  0  0  0
   -5.2949   -0.5627  -18.2948 O   0  0  0  0  0  0  0  0  0  0  0  0
   -5.1052   -0.4915  -19.7810 C   0  0  0  0  0  0  0  0  0  0  0  0
   -4.1803    0.5315  -20.3708 N   0  0  0  0  0  0  0  0  0  0  0  0
   -4.0557    0.5783  -21.3463 H   0  0  0  0  0  0  0  0  0  0  0  0
   -3.4450    1.4834  -19.4744 C   0  0  0  0  0  0  0  0  0  0  0  0
   -2.2567    2.2368  -19.9940 C   0  0  0  0  0  0  0  0  0  0  0  0
   -2.0535    3.5562  -20.6781 C   0  0  0  0  0  0  0  0  0  0  0  0
   -0.5760    3.3023  -20.7289 C   0  0  0  0  0  0  0  0  0  0  0  0
    0.6125    4.0557  -21.2486 F   0  0  0  0  0  0  0  0  0  0  0  0
   -0.7792    1.9829  -20.0448 C   0  0  0  0  0  0  0  0  0  0  0  0
 29 30  2  0  0  0
 30 28  1  0  0  0
  1 28  1  0  0  0
  1  2  1  0  0  0
  2  3  1  0  0  0
  3  4  2  0  0  0
  4  5  1  0  0  0
  5  6  2  0  0  0
  6  7  1  0  0  0
  6  8  1  0  0  0
  8  9  2  0  0  0
  9 10  1  0  0  0
 10 11  1  0  0  0
 11 12  1  0  0  0
 12 13  1  0  0  0
 13 18  1  0  0  0
 18 19  2  0  0  0
 19 20  1  0  0  0
 20 21  2  0  0  0
 21 22  1  0  0  0
 22 23  2  0  0  0
 23 24  1  0  0  0
 24 25  2  0  0  0
 25 26  1  0  0  0
 26 27  2  0  0  0
 13 14  1  0  0  0
 14 15  2  0  0  0
 10 16  1  0  0  0
 30 31  1  0  0  0
 31 33  1  0  0  0
 34 33  1  0  0  0
 34 35  1  0  0  0
 35 36  1  0  0  0
 36 37  1  0  0  0
 36 38  1  0  0  0
 16  1  1  0  0  0
 38 34  1  0  0  0
  9  3  1  0  0  0
 14 10  1  0  0  0
 27 18  1  0  0  0
 27 22  1  0  0  0
  1 17  1  0  0  0
 31 32  1  0  0  0
M  CHG 1   1   1
M  END
> <minimizedAffinity>
-8.10695

> <CNNscore>
0.1516630799

> <CNNaffinity>
5.9004898071

> <CNN_VS>
0.8948864341

> <CNNaffinity_variance>
0.1054273471

$$$$



 38 43  0  0  0  0  0  0  0  0999 V2000
   -3.8007    2.8581  -22.3669 N   0  0  0  0  0  0  0  0  0  0  0  0
   -3.6137    2.3463  -20.9695 C   0  0  0  0  0  0  0  0  0  0  0  0
   -4.5669    1.3333  -20.4078 C   0  0  0  0  0  0  0  0  0  0  0  0
   -4.3798    0.8215  -19.0104 C   0  0  0  0  0  0  0  0  0  0  0  0
   -5.3330   -0.1915  -18.4488 C   0  0  0  0  0  0  0  0  0  0  0  0
   -6.4732   -0.6925  -19.2847 C   0  0  0  0  0  0  0  0  0  0  0  0
   -7.4264   -1.7055  -18.7231 Cl  0  0  0  0  0  0  0  0  0  0  0  0
   -6.6603   -0.1807  -20.6822 C   0  0  0  0  0  0  0  0  0  0  0  0
   -5.7071    0.8322  -21.2438 C   0  0  0  0  0  0  0  0  0  0  0  0
   -5.8941    1.3441  -22.6413 C   0  0  0  0  0  0  0  0  0  0  0  0
   -6.2065    1.7618  -24.0477 C   0  0  0  0  0  0  0  0  0  0  0  0
   -7.4277    1.0132  -24.4932 C   0  0  0  0  0  0  0  0  0  0  0  0
   -7.8700    0.1329  -23.3621 N   0  0  0  0  0  0  0  0  0  0  0  0
   -6.9222    0.3374  -22.2176 C   0  0  0  0  0  0  0  0  0  0  0  0
   -7.2153   -0.3457  -21.2564 O   0  0  0  0  0  0  0  0  0  0  0  0
   -4.9410    2.3571  -23.2029 C   0  0  0  0  0  0  0  0  0  0  0  0
   -3.0253    3.1989  -21.7985 H   0  0  0  0  0  0  0  0  0  0  0  0
   -9.0524   -0.7900  -23.3736 C   0  0  0  0  0  0  0  0  0  0  0  0
   -8.8447   -2.2745  -23.4282 C   0  0  0  0  0  0  0  0  0  0  0  0
  -10.0272   -3.1974  -23.4396 N   0  0  0  0  0  0  0  0  0  0  0  0
  -11.4174   -2.6357  -23.3964 C   0  0  0  0  0  0  0  0  0  0  0  0
  -11.6251   -1.1511  -23.3418 C   0  0  0  0  0  0  0  0  0  0  0  0
  -13.0153   -0.5894  -23.2986 C   0  0  0  0  0  0  0  0  0  0  0  0
  -13.2229    0.8952  -23.2440 C   0  0  0  0  0  0  0  0  0  0  0  0
  -12.0405    1.8180  -23.2325 C   0  0  0  0  0  0  0  0  0  0  0  0
  -10.6503    1.2563  -23.2757 C   0  0  0  0  0  0  0  0  0  0  0  0
  -10.4426   -0.2283  -23.3304 C   0  0  0  0  0  0  0  0  0  0  0  0
   -2.8475    3.8711  -22.9286 C   0  0  0  0  0  0  0  0  0  0  0  0
   -2.6439    6.0067  -24.3941 O   0  0  0  0  0  0  0  0  0  0  0  0
   -3.3426    5.2331  -23.3154 C   0  0  0  0  0  0  0  0  0  0  0  0
   -4.5364    5.8216  -22.6237 N   0  0  0  0  0  0  0  0  0  0  0  0
   -4.9950    5.3138  -21.9158 H   0  0  0  0  0  0  0  0  0  0  0  0
   -5.0316    7.1836  -23.0106 C   0  0  0  0  0  0  0  0  0  0  0  0
   -6.3429    7.3303  -23.7240 C   0  0  0  0  0  0  0  0  0  0  0  0
   -7.7363    6.8232  -23.4972 C   0  0  0  0  0  0  0  0  0  0  0  0
   -8.1973    7.5376  -24.7330 C   0  0  0  0  0  0  0  0  0  0  0  0
   -9.5087    7.6842  -25.4464 F   0  0  0  0  0  0  0  0  0  0  0  0
   -6.8040    8.0446  -24.9598 C   0  0  0  0  0  0  0  0  0  0  0  0
 29 30  2  0  0  0
 30 28  1  0  0  0
  1 28  1  0  0  0
  1  2  1  0  0  0
  2  3  1  0  0  0
  3  4  2  0  0  0
  4  5  1  0  0  0
  5  6  2  0  0  0
  6  7  1  0  0  0
  6  8  1  0  0  0
  8  9  2  0  0  0
  9 10  1  0  0  0
 10 11  1  0  0  0
 11 12  1  0  0  0
 12 13  1  0  0  0
 13 18  1  0  0  0
 18 19  2  0  0  0
 19 20  1  0  0  0
 20 21  2  0  0  0
 21 22  1  0  0  0
 22 23  2  0  0  0
 23 24  1  0  0  0
 24 25  2  0  0  0
 25 26  1  0  0  0
 26 27  2  0  0  0
 13 14  1  0  0  0
 14 15  2  0  0  0
 10 16  1  0  0  0
 30 31  1  0  0  0
 31 33  1  0  0  0
 34 33  1  0  0  0
 34 35  1  0  0  0
 35 36  1  0  0  0
 36 37  1  0  0  0
 36 38  1  0  0  0
 16  1  1  0  0  0
 38 34  1  0  0  0
  9  3  1  0  0  0
 14 10  1  0  0  0
 27 18  1  0  0  0
 27 22  1  0  0  0
  1 17  1  0  0  0
 31 32  1  0  0  0
M  CHG 1   1   1
M  END
> <minimizedAffinity>
-7.48533

> <CNNscore>
0.1410381496

> <CNNaffinity>
5.8050398827

> <CNN_VS>
0.8187320828

> <CNNaffinity_variance>
0.3706381321

$$$$



 38 43  0  0  0  0  0  0  0  0999 V2000
   -9.5804   -3.5735  -23.4152 N   0  0  0  0  0  0  0  0  0  0  0  0
  -10.2688   -3.8631  -24.7160 C   0  0  0  0  0  0  0  0  0  0  0  0
   -9.5857   -4.7012  -25.7558 C   0  0  0  0  0  0  0  0  0  0  0  0
  -10.2741   -4.9907  -27.0566 C   0  0  0  0  0  0  0  0  0  0  0  0
   -9.5910   -5.8287  -28.0963 C   0  0  0  0  0  0  0  0  0  0  0  0
   -8.2195   -6.3772  -27.8352 C   0  0  0  0  0  0  0  0  0  0  0  0
   -7.5364   -7.2153  -28.8750 Cl  0  0  0  0  0  0  0  0  0  0  0  0
   -7.5311   -6.0877  -26.5344 C   0  0  0  0  0  0  0  0  0  0  0  0
   -8.2142   -5.2496  -25.4947 C   0  0  0  0  0  0  0  0  0  0  0  0
   -7.5258   -4.9600  -24.1938 C   0  0  0  0  0  0  0  0  0  0  0  0
   -6.7171   -4.7558  -22.9470 C   0  0  0  0  0  0  0  0  0  0  0  0
   -5.4137   -5.4786  -23.1162 C   0  0  0  0  0  0  0  0  0  0  0  0
   -5.4168   -6.1296  -24.4676 N   0  0  0  0  0  0  0  0  0  0  0  0
   -6.7221   -5.8091  -25.1335 C   0  0  0  0  0  0  0  0  0  0  0  0
   -6.8020   -6.3042  -26.2402 O   0  0  0  0  0  0  0  0  0  0  0  0
   -8.2089   -4.1220  -23.1540 C   0  0  0  0  0  0  0  0  0  0  0  0
  -10.5130   -3.2005  -23.5927 H   0  0  0  0  0  0  0  0  0  0  0  0
   -4.3090   -6.9560  -25.0507 C   0  0  0  0  0  0  0  0  0  0  0  0
   -4.1568   -8.3942  -24.6526 C   0  0  0  0  0  0  0  0  0  0  0  0
   -3.0491   -9.2206  -25.2356 N   0  0  0  0  0  0  0  0  0  0  0  0
   -2.0936   -8.6088  -26.2168 C   0  0  0  0  0  0  0  0  0  0  0  0
   -2.2458   -7.1706  -26.6149 C   0  0  0  0  0  0  0  0  0  0  0  0
   -1.2903   -6.5588  -27.5962 C   0  0  0  0  0  0  0  0  0  0  0  0
   -1.4426   -5.1206  -27.9942 C   0  0  0  0  0  0  0  0  0  0  0  0
   -2.5503   -4.2942  -27.4111 C   0  0  0  0  0  0  0  0  0  0  0  0
   -3.5058   -4.9060  -26.4300 C   0  0  0  0  0  0  0  0  0  0  0  0
   -3.3536   -6.3442  -26.0318 C   0  0  0  0  0  0  0  0  0  0  0  0
  -10.2634   -2.7354  -22.3754 C   0  0  0  0  0  0  0  0  0  0  0  0
  -12.8579   -2.6606  -22.4900 O   0  0  0  0  0  0  0  0  0  0  0  0
  -11.5282   -2.0036  -22.7141 C   0  0  0  0  0  0  0  0  0  0  0  0
  -11.4632   -0.6148  -23.2770 N   0  0  0  0  0  0  0  0  0  0  0  0
  -10.5905   -0.1836  -23.4241 H   0  0  0  0  0  0  0  0  0  0  0  0
  -12.7280    0.1171  -23.6158 C   0  0  0  0  0  0  0  0  0  0  0  0
  -12.8583    1.5769  -23.2963 C   0  0  0  0  0  0  0  0  0  0  0  0
  -12.4793    2.4463  -22.1343 C   0  0  0  0  0  0  0  0  0  0  0  0
  -13.0427    3.6413  -22.8446 C   0  0  0  0  0  0  0  0  0  0  0  0
  -13.1730    5.1011  -22.5250 F   0  0  0  0  0  0  0  0  0  0  0  0
  -13.4217    2.7719  -24.0066 C   0  0  0  0  0  0  0  0  0  0  0  0
 29 30  2  0  0  0
 30 28  1  0  0  0
  1 28  1  0  0  0
  1  2  1  0  0  0
  2  3  1  0  0  0
  3  4  2  0  0  0
  4  5  1  0  0  0
  5  6  2  0  0  0
  6  7  1  0  0  0
  6  8  1  0  0  0
  8  9  2  0  0  0
  9 10  1  0  0  0
 10 11  1  0  0  0
 11 12  1  0  0  0
 12 13  1  0  0  0
 13 18  1  0  0  0
 18 19  2  0  0  0
 19 20  1  0  0  0
 20 21  2  0  0  0
 21 22  1  0  0  0
 22 23  2  0  0  0
 23 24  1  0  0  0
 24 25  2  0  0  0
 25 26  1  0  0  0
 26 27  2  0  0  0
 13 14  1  0  0  0
 14 15  2  0  0  0
 10 16  1  0  0  0
 30 31  1  0  0  0
 31 33  1  0  0  0
 34 33  1  0  0  0
 34 35  1  0  0  0
 35 36  1  0  0  0
 36 37  1  0  0  0
 36 38  1  0  0  0
 16  1  1  0  0  0
 38 34  1  0  0  0
  9  3  1  0  0  0
 14 10  1  0  0  0
 27 18  1  0  0  0
 27 22  1  0  0  0
  1 17  1  0  0  0
 31 32  1  0  0  0
M  CHG 1   1   1
M  END
> <minimizedAffinity>
-7.75629

> <CNNscore>
0.1328169256

> <CNNaffinity>
5.9095144272

> <CNN_VS>
0.7848835588

> <CNNaffinity_variance>
0.1877021044

$$$$
