


 35 40  0  0  0  0  0  0  0  0999 V2000
    6.8312   -2.5499   24.3629 C   0  0  0  0  0  0  0  0  0  0  0  0
    7.2560   -1.5911   23.2904 C   0  0  0  0  0  0  0  0  0  0  0  0
    6.1787   -1.3778   22.2686 C   0  0  0  0  0  0  0  0  0  0  0  0
    6.6954   -0.4103   21.2454 N   0  0  0  0  0  0  0  0  0  0  0  0
    8.0920   -0.0257   21.6348 C   0  0  0  0  0  0  0  0  0  0  0  0
    8.9853    0.9223   20.8909 O   0  0  0  0  0  0  0  0  0  0  0  0
    8.4384   -0.7554   22.8987 C   0  0  0  0  0  0  0  0  0  0  0  0
    9.5362    0.1274   22.3835 C   0  0  0  0  0  0  0  0  0  0  0  0
   10.8368    0.2175   23.1254 N   0  0  0  0  0  0  0  0  0  0  0  0
   11.0396   -0.5753   24.3824 C   0  0  0  0  0  0  0  0  0  0  0  0
   12.3402   -0.4852   25.1243 O   0  0  0  0  0  0  0  0  0  0  0  0
    9.9418   -1.4582   24.8977 C   0  0  0  0  0  0  0  0  0  0  0  0
   10.1447   -2.2510   26.1548 C   0  0  0  0  0  0  0  0  0  0  0  0
    9.0469   -3.1339   26.6699 C   0  0  0  0  0  0  0  0  0  0  0  0
    7.7463   -3.2240   25.9281 C   0  0  0  0  0  0  0  0  0  0  0  0
    6.6486   -4.1069   26.4433 F   0  0  0  0  0  0  0  0  0  0  0  0
    7.5435   -2.4312   24.6710 C   0  0  0  0  0  0  0  0  0  0  0  0
    8.6412   -1.5483   24.1558 C   0  0  0  0  0  0  0  0  0  0  0  0
    5.9469    0.0855   20.0437 C   0  0  0  0  0  0  0  0  0  0  0  0
    6.2696   -0.4565   18.6829 C   0  0  0  0  0  0  0  0  0  0  0  0
    5.5211    0.0393   17.4813 N   0  0  0  0  0  0  0  0  0  0  0  0
    4.4500    1.0772   17.6405 C   0  0  0  0  0  0  0  0  0  0  0  0
    4.1273    1.6193   19.0014 C   0  0  0  0  0  0  0  0  0  0  0  0
    3.0561    2.6573   19.1607 C   0  0  0  0  0  0  0  0  0  0  0  0
    2.7335    3.1993   20.5216 C   0  0  0  0  0  0  0  0  0  0  0  0
    3.4820    2.7034   21.7232 C   0  0  0  0  0  0  0  0  0  0  0  0
    4.5531    1.6655   21.5639 C   0  0  0  0  0  0  0  0  0  0  0  0
    4.8758    1.1235   20.2031 C   0  0  0  0  0  0  0  0  0  0  0  0
   11.9345    1.1005   22.6101 C   0  0  0  0  0  0  0  0  0  0  0  0
   11.7709    2.5913   22.6327 C   0  0  0  0  0  0  0  0  0  0  0  0
   12.8091    3.5984   22.2353 N   0  0  0  0  0  0  0  0  0  0  0  0
   12.2201    4.9663   22.4136 N   0  0  0  0  0  0  0  0  0  0  0  0
   10.8178    4.8047   22.9211 N   0  0  0  0  0  0  0  0  0  0  0  0
   10.5402    3.3368   23.0565 N   0  0  0  0  0  0  0  0  0  0  0  0
    9.2572    2.7224   23.5323 C   0  0  0  0  0  0  0  0  0  0  0  0
  2  1  1  0  0  0
  2  3  1  0  0  0
  3  4  1  0  0  0
  4 19  1  0  0  0
 19 20  2  0  0  0
 20 21  1  0  0  0
 21 22  2  0  0  0
 22 23  1  0  0  0
 23 24  2  0  0  0
 24 25  1  0  0  0
 25 26  2  0  0  0
 26 27  1  0  0  0
 27 28  2  0  0  0
  4  5  1  0  0  0
  5  6  2  0  0  0
  5  7  1  0  0  0
  7  8  1  0  0  0
  8  9  1  0  0  0
  9 29  1  0  0  0
 29 30  1  0  0  0
 30 31  2  0  0  0
 31 32  1  0  0  0
 32 33  2  0  0  0
 33 34  1  0  0  0
 34 35  1  0  0  0
  9 10  1  0  0  0
 10 11  2  0  0  0
 10 12  1  0  0  0
 12 13  2  0  0  0
 13 14  1  0  0  0
 14 15  2  0  0  0
 15 16  1  0  0  0
 15 17  1  0  0  0
 17 18  2  0  0  0
  7  2  1  0  0  0
 34 30  1  0  0  0
 18 12  1  0  0  0
 28 19  1  0  0  0
 18  7  1  0  0  0
 28 23  1  0  0  0
M  END
> <minimizedAffinity>
-9.02401

> <CNNscore>
0.5504980683

> <CNNaffinity>
6.8574013710

> <CNN_VS>
3.7749862671

> <CNNaffinity_variance>
0.1516571343

$$$$



 35 40  0  0  0  0  0  0  0  0999 V2000
   11.1092   -2.6599   24.5289 C   0  0  0  0  0  0  0  0  0  0  0  0
    9.6294   -2.6656   24.2828 C   0  0  0  0  0  0  0  0  0  0  0  0
    8.9728   -3.8960   24.8349 C   0  0  0  0  0  0  0  0  0  0  0  0
    7.5044   -3.8093   24.5410 N   0  0  0  0  0  0  0  0  0  0  0  0
    7.2536   -2.5252   23.8073 C   0  0  0  0  0  0  0  0  0  0  0  0
    5.9230   -2.0342   23.3190 O   0  0  0  0  0  0  0  0  0  0  0  0
    8.5669   -1.8183   23.6478 C   0  0  0  0  0  0  0  0  0  0  0  0
    7.4020   -1.0823   23.0553 C   0  0  0  0  0  0  0  0  0  0  0  0
    7.6154    0.2397   22.3793 N   0  0  0  0  0  0  0  0  0  0  0  0
    8.9937    0.8256   22.2959 C   0  0  0  0  0  0  0  0  0  0  0  0
    9.2071    2.1475   21.6199 O   0  0  0  0  0  0  0  0  0  0  0  0
   10.1587    0.0895   22.8883 C   0  0  0  0  0  0  0  0  0  0  0  0
   11.5370    0.6753   22.8049 C   0  0  0  0  0  0  0  0  0  0  0  0
   12.7019   -0.0608   23.3973 C   0  0  0  0  0  0  0  0  0  0  0  0
   12.4886   -1.3827   24.0733 C   0  0  0  0  0  0  0  0  0  0  0  0
   13.6536   -2.1188   24.6658 F   0  0  0  0  0  0  0  0  0  0  0  0
   11.1103   -1.9686   24.1568 C   0  0  0  0  0  0  0  0  0  0  0  0
    9.9453   -1.2325   23.5643 C   0  0  0  0  0  0  0  0  0  0  0  0
    6.4687   -4.8278   24.9151 C   0  0  0  0  0  0  0  0  0  0  0  0
    6.3483   -6.0989   24.1281 C   0  0  0  0  0  0  0  0  0  0  0  0
    5.3125   -7.1174   24.5022 N   0  0  0  0  0  0  0  0  0  0  0  0
    4.3972   -6.8646   25.6634 C   0  0  0  0  0  0  0  0  0  0  0  0
    4.5177   -5.5934   26.4504 C   0  0  0  0  0  0  0  0  0  0  0  0
    3.6023   -5.3406   27.6116 C   0  0  0  0  0  0  0  0  0  0  0  0
    3.7228   -4.0693   28.3986 C   0  0  0  0  0  0  0  0  0  0  0  0
    4.7585   -3.0509   28.0245 C   0  0  0  0  0  0  0  0  0  0  0  0
    5.6738   -3.3037   26.8633 C   0  0  0  0  0  0  0  0  0  0  0  0
    5.5534   -4.5749   26.0763 C   0  0  0  0  0  0  0  0  0  0  0  0
    6.4504    0.9758   21.7868 C   0  0  0  0  0  0  0  0  0  0  0  0
    6.1186    0.8093   20.3335 C   0  0  0  0  0  0  0  0  0  0  0  0
    7.0643    0.3610   19.2590 N   0  0  0  0  0  0  0  0  0  0  0  0
    6.3131    0.3365   17.9609 N   0  0  0  0  0  0  0  0  0  0  0  0
    4.9029    0.7696   18.2333 N   0  0  0  0  0  0  0  0  0  0  0  0
    4.7828    1.0618   19.6996 N   0  0  0  0  0  0  0  0  0  0  0  0
    3.5443    1.5251   20.4077 C   0  0  0  0  0  0  0  0  0  0  0  0
  2  1  1  0  0  0
  2  3  1  0  0  0
  3  4  1  0  0  0
  4 19  1  0  0  0
 19 20  2  0  0  0
 20 21  1  0  0  0
 21 22  2  0  0  0
 22 23  1  0  0  0
 23 24  2  0  0  0
 24 25  1  0  0  0
 25 26  2  0  0  0
 26 27  1  0  0  0
 27 28  2  0  0  0
  4  5  1  0  0  0
  5  6  2  0  0  0
  5  7  1  0  0  0
  7  8  1  0  0  0
  8  9  1  0  0  0
  9 29  1  0  0  0
 29 30  1  0  0  0
 30 31  2  0  0  0
 31 32  1  0  0  0
 32 33  2  0  0  0
 33 34  1  0  0  0
 34 35  1  0  0  0
  9 10  1  0  0  0
 10 11  2  0  0  0
 10 12  1  0  0  0
 12 13  2  0  0  0
 13 14  1  0  0  0
 14 15  2  0  0  0
 15 16  1  0  0  0
 15 17  1  0  0  0
 17 18  2  0  0  0
  7  2  1  0  0  0
 34 30  1  0  0  0
 18 12  1  0  0  0
 28 19  1  0  0  0
 18  7  1  0  0  0
 28 23  1  0  0  0
M  END
> <minimizedAffinity>
-9.39322

> <CNNscore>
0.4511609375

> <CNNaffinity>
6.8309326172

> <CNN_VS>
3.0818500519

> <CNNaffinity_variance>
0.0779134259

$$$$



 35 40  0  0  0  0  0  0  0  0999 V2000
   11.0163    0.0483   22.5016 C   0  0  0  0  0  0  0  0  0  0  0  0
    9.6305   -0.4748   22.2650 C   0  0  0  0  0  0  0  0  0  0  0  0
    8.9161    0.2921   21.1919 C   0  0  0  0  0  0  0  0  0  0  0  0
    7.5484   -0.3021   21.0299 N   0  0  0  0  0  0  0  0  0  0  0  0
    7.4175   -1.4362   22.0029 C   0  0  0  0  0  0  0  0  0  0  0  0
    6.2115   -2.3102   22.1812 O   0  0  0  0  0  0  0  0  0  0  0  0
    8.7043   -1.5430   22.7662 C   0  0  0  0  0  0  0  0  0  0  0  0
    7.6733   -2.5573   23.1637 C   0  0  0  0  0  0  0  0  0  0  0  0
    7.9800   -3.5567   24.2394 N   0  0  0  0  0  0  0  0  0  0  0  0
    9.3179   -3.5418   24.9175 C   0  0  0  0  0  0  0  0  0  0  0  0
    9.6247   -4.5412   25.9932 O   0  0  0  0  0  0  0  0  0  0  0  0
   10.3490   -2.5275   24.5200 C   0  0  0  0  0  0  0  0  0  0  0  0
   11.6869   -2.5126   25.1981 C   0  0  0  0  0  0  0  0  0  0  0  0
   12.7180   -1.4983   24.8006 C   0  0  0  0  0  0  0  0  0  0  0  0
   12.4112   -0.4989   23.7249 C   0  0  0  0  0  0  0  0  0  0  0  0
   13.4423    0.5154   23.3273 F   0  0  0  0  0  0  0  0  0  0  0  0
   11.0733   -0.5138   23.0468 C   0  0  0  0  0  0  0  0  0  0  0  0
   10.0423   -1.5281   23.4443 C   0  0  0  0  0  0  0  0  0  0  0  0
    6.4962    0.1571   20.0644 C   0  0  0  0  0  0  0  0  0  0  0  0
    6.4000   -0.4705   18.7055 C   0  0  0  0  0  0  0  0  0  0  0  0
    5.3478   -0.0113   17.7401 N   0  0  0  0  0  0  0  0  0  0  0  0
    4.3920    1.0756   18.1337 C   0  0  0  0  0  0  0  0  0  0  0  0
    4.4882    1.7033   19.4926 C   0  0  0  0  0  0  0  0  0  0  0  0
    3.5323    2.7903   19.8862 C   0  0  0  0  0  0  0  0  0  0  0  0
    3.6286    3.4179   21.2452 C   0  0  0  0  0  0  0  0  0  0  0  0
    4.6807    2.9586   22.2105 C   0  0  0  0  0  0  0  0  0  0  0  0
    5.6366    1.8717   21.8170 C   0  0  0  0  0  0  0  0  0  0  0  0
    5.5404    1.2440   20.4581 C   0  0  0  0  0  0  0  0  0  0  0  0
    6.9489   -4.5710   24.6370 C   0  0  0  0  0  0  0  0  0  0  0  0
    6.1719   -5.3031   23.5834 C   0  0  0  0  0  0  0  0  0  0  0  0
    6.6816   -5.7043   22.2309 N   0  0  0  0  0  0  0  0  0  0  0  0
    5.5734   -6.4117   21.5089 N   0  0  0  0  0  0  0  0  0  0  0  0
    4.3787   -6.4479   22.4152 N   0  0  0  0  0  0  0  0  0  0  0  0
    4.7486   -5.7627   23.6973 N   0  0  0  0  0  0  0  0  0  0  0  0
    3.8524   -5.5708   24.8847 C   0  0  0  0  0  0  0  0  0  0  0  0
  2  1  1  0  0  0
  2  3  1  0  0  0
  3  4  1  0  0  0
  4 19  1  0  0  0
 19 20  2  0  0  0
 20 21  1  0  0  0
 21 22  2  0  0  0
 22 23  1  0  0  0
 23 24  2  0  0  0
 24 25  1  0  0  0
 25 26  2  0  0  0
 26 27  1  0  0  0
 27 28  2  0  0  0
  4  5  1  0  0  0
  5  6  2  0  0  0
  5  7  1  0  0  0
  7  8  1  0  0  0
  8  9  1  0  0  0
  9 29  1  0  0  0
 29 30  1  0  0  0
 30 31  2  0  0  0
 31 32  1  0  0  0
 32 33  2  0  0  0
 33 34  1  0  0  0
 34 35  1  0  0  0
  9 10  1  0  0  0
 10 11  2  0  0  0
 10 12  1  0  0  0
 12 13  2  0  0  0
 13 14  1  0  0  0
 14 15  2  0  0  0
 15 16  1  0  0  0
 15 17  1  0  0  0
 17 18  2  0  0  0
  7  2  1  0  0  0
 34 30  1  0  0  0
 18 12  1  0  0  0
 28 19  1  0  0  0
 18  7  1  0  0  0
 28 23  1  0  0  0
M  END
> <minimizedAffinity>
-9.42065

> <CNNscore>
0.4431896806

> <CNNaffinity>
6.8790397644

> <CNN_VS>
3.0487194061

> <CNNaffinity_variance>
0.0979937240

$$$$



 35 40  0  0  0  0  0  0  0  0999 V2000
   10.8186   -3.1454   26.0413 C   0  0  0  0  0  0  0  0  0  0  0  0
    9.4010   -2.7470   25.7548 C   0  0  0  0  0  0  0  0  0  0  0  0
    8.4155   -3.6948   26.3716 C   0  0  0  0  0  0  0  0  0  0  0  0
    7.0356   -3.2149   26.0313 N   0  0  0  0  0  0  0  0  0  0  0  0
    7.1685   -1.9706   25.2043 C   0  0  0  0  0  0  0  0  0  0  0  0
    6.0378   -1.1581   24.6461 O   0  0  0  0  0  0  0  0  0  0  0  0
    8.6304   -1.6814   25.0334 C   0  0  0  0  0  0  0  0  0  0  0  0
    7.7294   -0.6896   24.3592 C   0  0  0  0  0  0  0  0  0  0  0  0
    8.3174    0.4628   23.6001 N   0  0  0  0  0  0  0  0  0  0  0  0
    9.8063    0.6235   23.5153 C   0  0  0  0  0  0  0  0  0  0  0  0
   10.3943    1.7759   22.7562 O   0  0  0  0  0  0  0  0  0  0  0  0
   10.7074   -0.3683   24.1895 C   0  0  0  0  0  0  0  0  0  0  0  0
   12.1963   -0.2077   24.1046 C   0  0  0  0  0  0  0  0  0  0  0  0
   13.0972   -1.1995   24.7788 C   0  0  0  0  0  0  0  0  0  0  0  0
   12.5093   -2.3519   25.5379 C   0  0  0  0  0  0  0  0  0  0  0  0
   13.4103   -3.3438   26.2121 F   0  0  0  0  0  0  0  0  0  0  0  0
   11.0203   -2.5126   25.6227 C   0  0  0  0  0  0  0  0  0  0  0  0
   10.1194   -1.5208   24.9485 C   0  0  0  0  0  0  0  0  0  0  0  0
    5.7489   -3.8652   26.4454 C   0  0  0  0  0  0  0  0  0  0  0  0
    4.9884   -4.7123   25.4688 C   0  0  0  0  0  0  0  0  0  0  0  0
    3.7017   -5.3625   25.8828 N   0  0  0  0  0  0  0  0  0  0  0  0
    3.1755   -5.1656   27.2736 C   0  0  0  0  0  0  0  0  0  0  0  0
    3.9360   -4.3184   28.2503 C   0  0  0  0  0  0  0  0  0  0  0  0
    3.4097   -4.1215   29.6412 C   0  0  0  0  0  0  0  0  0  0  0  0
    4.1703   -3.2743   30.6178 C   0  0  0  0  0  0  0  0  0  0  0  0
    5.4570   -2.6241   30.2037 C   0  0  0  0  0  0  0  0  0  0  0  0
    5.9832   -2.8211   28.8129 C   0  0  0  0  0  0  0  0  0  0  0  0
    5.2227   -3.6682   27.8362 C   0  0  0  0  0  0  0  0  0  0  0  0
    7.4164    1.4547   22.9259 C   0  0  0  0  0  0  0  0  0  0  0  0
    6.7642    1.1089   21.6201 C   0  0  0  0  0  0  0  0  0  0  0  0
    7.4631    0.9351   20.3043 N   0  0  0  0  0  0  0  0  0  0  0  0
    6.4295    0.5950   19.2718 N   0  0  0  0  0  0  0  0  0  0  0  0
    5.0918    0.5586   19.9496 N   0  0  0  0  0  0  0  0  0  0  0  0
    5.2987    0.8762   21.4009 N   0  0  0  0  0  0  0  0  0  0  0  0
    4.2280    0.9485   22.4489 C   0  0  0  0  0  0  0  0  0  0  0  0
  2  1  1  0  0  0
  2  3  1  0  0  0
  3  4  1  0  0  0
  4 19  1  0  0  0
 19 20  2  0  0  0
 20 21  1  0  0  0
 21 22  2  0  0  0
 22 23  1  0  0  0
 23 24  2  0  0  0
 24 25  1  0  0  0
 25 26  2  0  0  0
 26 27  1  0  0  0
 27 28  2  0  0  0
  4  5  1  0  0  0
  5  6  2  0  0  0
  5  7  1  0  0  0
  7  8  1  0  0  0
  8  9  1  0  0  0
  9 29  1  0  0  0
 29 30  1  0  0  0
 30 31  2  0  0  0
 31 32  1  0  0  0
 32 33  2  0  0  0
 33 34  1  0  0  0
 34 35  1  0  0  0
  9 10  1  0  0  0
 10 11  2  0  0  0
 10 12  1  0  0  0
 12 13  2  0  0  0
 13 14  1  0  0  0
 14 15  2  0  0  0
 15 16  1  0  0  0
 15 17  1  0  0  0
 17 18  2  0  0  0
  7  2  1  0  0  0
 34 30  1  0  0  0
 18 12  1  0  0  0
 28 19  1  0  0  0
 18  7  1  0  0  0
 28 23  1  0  0  0
M  END
> <minimizedAffinity>
-8.77512

> <CNNscore>
0.4111720622

> <CNNaffinity>
6.7258024216

> <CNN_VS>
2.7654621601

> <CNNaffinity_variance>
0.1618565768

$$$$



 35 40  0  0  0  0  0  0  0  0999 V2000
   10.4583   -3.4978   25.2695 C   0  0  0  0  0  0  0  0  0  0  0  0
    9.1871   -3.2069   24.5281 C   0  0  0  0  0  0  0  0  0  0  0  0
    8.1960   -4.3261   24.6516 C   0  0  0  0  0  0  0  0  0  0  0  0
    6.9667   -3.9436   23.8818 N   0  0  0  0  0  0  0  0  0  0  0  0
    7.1980   -2.5880   23.2827 C   0  0  0  0  0  0  0  0  0  0  0  0
    6.2275   -1.8222   22.4333 O   0  0  0  0  0  0  0  0  0  0  0  0
    8.5703   -2.1327   23.6822 C   0  0  0  0  0  0  0  0  0  0  0  0
    7.8271   -1.1509   22.8256 C   0  0  0  0  0  0  0  0  0  0  0  0
    8.4697    0.1501   22.4458 N   0  0  0  0  0  0  0  0  0  0  0  0
    9.8556    0.4694   22.9224 C   0  0  0  0  0  0  0  0  0  0  0  0
   10.4983    1.7704   22.5426 O   0  0  0  0  0  0  0  0  0  0  0  0
   10.5990   -0.5124   23.7790 C   0  0  0  0  0  0  0  0  0  0  0  0
   11.9849   -0.1932   24.2556 C   0  0  0  0  0  0  0  0  0  0  0  0
   12.7282   -1.1749   25.1122 C   0  0  0  0  0  0  0  0  0  0  0  0
   12.0855   -2.4759   25.4920 C   0  0  0  0  0  0  0  0  0  0  0  0
   12.8288   -3.4577   26.3486 F   0  0  0  0  0  0  0  0  0  0  0  0
   10.6996   -2.7952   25.0154 C   0  0  0  0  0  0  0  0  0  0  0  0
    9.9563   -1.8135   24.1589 C   0  0  0  0  0  0  0  0  0  0  0  0
    5.7242   -4.7713   23.7367 C   0  0  0  0  0  0  0  0  0  0  0  0
    5.3785   -5.3788   22.4096 C   0  0  0  0  0  0  0  0  0  0  0  0
    4.1360   -6.2065   22.2645 N   0  0  0  0  0  0  0  0  0  0  0  0
    3.2392   -6.4266   23.4465 C   0  0  0  0  0  0  0  0  0  0  0  0
    3.5849   -5.8191   24.7737 C   0  0  0  0  0  0  0  0  0  0  0  0
    2.6880   -6.0393   25.9558 C   0  0  0  0  0  0  0  0  0  0  0  0
    3.0338   -5.4317   27.2830 C   0  0  0  0  0  0  0  0  0  0  0  0
    4.2763   -4.6040   27.4280 C   0  0  0  0  0  0  0  0  0  0  0  0
    5.1731   -4.3839   26.2460 C   0  0  0  0  0  0  0  0  0  0  0  0
    4.8274   -4.9914   24.9188 C   0  0  0  0  0  0  0  0  0  0  0  0
    7.7264    1.1319   21.5892 C   0  0  0  0  0  0  0  0  0  0  0  0
    6.9584    0.6528   20.3931 C   0  0  0  0  0  0  0  0  0  0  0  0
    7.4418   -0.3343   19.3724 N   0  0  0  0  0  0  0  0  0  0  0  0
    6.3544   -0.5205   18.3562 N   0  0  0  0  0  0  0  0  0  0  0  0
    5.1988    0.3517   18.7489 N   0  0  0  0  0  0  0  0  0  0  0  0
    5.5721    1.0768   20.0078 N   0  0  0  0  0  0  0  0  0  0  0  0
    4.7105    2.0542   20.7508 C   0  0  0  0  0  0  0  0  0  0  0  0
  2  1  1  0  0  0
  2  3  1  0  0  0
  3  4  1  0  0  0
  4 19  1  0  0  0
 19 20  2  0  0  0
 20 21  1  0  0  0
 21 22  2  0  0  0
 22 23  1  0  0  0
 23 24  2  0  0  0
 24 25  1  0  0  0
 25 26  2  0  0  0
 26 27  1  0  0  0
 27 28  2  0  0  0
  4  5  1  0  0  0
  5  6  2  0  0  0
  5  7  1  0  0  0
  7  8  1  0  0  0
  8  9  1  0  0  0
  9 29  1  0  0  0
 29 30  1  0  0  0
 30 31  2  0  0  0
 31 32  1  0  0  0
 32 33  2  0  0  0
 33 34  1  0  0  0
 34 35  1  0  0  0
  9 10  1  0  0  0
 10 11  2  0  0  0
 10 12  1  0  0  0
 12 13  2  0  0  0
 13 14  1  0  0  0
 14 15  2  0  0  0
 15 16  1  0  0  0
 15 17  1  0  0  0
 17 18  2  0  0  0
  7  2  1  0  0  0
 34 30  1  0  0  0
 18 12  1  0  0  0
 28 19  1  0  0  0
 18  7  1  0  0  0
 28 23  1  0  0  0
M  END
> <minimizedAffinity>
-9.41894

> <CNNscore>
0.3918096423

> <CNNaffinity>
6.7373838425

> <CNN_VS>
2.6397719383

> <CNNaffinity_variance>
0.1126008034

$$$$



 35 40  0  0  0  0  0  0  0  0999 V2000
   10.9389   -1.1570   24.5471 C   0  0  0  0  0  0  0  0  0  0  0  0
   10.2563   -0.0504   23.7990 C   0  0  0  0  0  0  0  0  0  0  0  0
   11.0944    1.1925   23.7463 C   0  0  0  0  0  0  0  0  0  0  0  0
   10.3313    2.2341   22.9829 N   0  0  0  0  0  0  0  0  0  0  0  0
    9.0216    1.6348   22.5638 C   0  0  0  0  0  0  0  0  0  0  0  0
    7.9469    2.3262   21.7783 O   0  0  0  0  0  0  0  0  0  0  0  0
    8.9753    0.2229   23.0682 C   0  0  0  0  0  0  0  0  0  0  0  0
    7.7498    0.6407   22.3108 C   0  0  0  0  0  0  0  0  0  0  0  0
    6.6207   -0.3278   22.1181 N   0  0  0  0  0  0  0  0  0  0  0  0
    6.7170   -1.7140   22.6829 C   0  0  0  0  0  0  0  0  0  0  0  0
    5.5879   -2.6825   22.4903 O   0  0  0  0  0  0  0  0  0  0  0  0
    7.9425   -2.1318   23.4404 C   0  0  0  0  0  0  0  0  0  0  0  0
    8.0388   -3.5181   24.0052 C   0  0  0  0  0  0  0  0  0  0  0  0
    9.2642   -3.9358   24.7626 C   0  0  0  0  0  0  0  0  0  0  0  0
   10.3934   -2.9674   24.9552 C   0  0  0  0  0  0  0  0  0  0  0  0
   11.6188   -3.3852   25.7127 F   0  0  0  0  0  0  0  0  0  0  0  0
   10.2970   -1.5811   24.3904 C   0  0  0  0  0  0  0  0  0  0  0  0
    9.0716   -1.1634   23.6330 C   0  0  0  0  0  0  0  0  0  0  0  0
   10.7962    3.6298   22.6900 C   0  0  0  0  0  0  0  0  0  0  0  0
   12.1450    3.8574   22.0747 C   0  0  0  0  0  0  0  0  0  0  0  0
   12.6099    5.2531   21.7818 N   0  0  0  0  0  0  0  0  0  0  0  0
   11.7259    6.4212   22.1043 C   0  0  0  0  0  0  0  0  0  0  0  0
   10.3770    6.1936   22.7197 C   0  0  0  0  0  0  0  0  0  0  0  0
    9.4929    7.3618   23.0422 C   0  0  0  0  0  0  0  0  0  0  0  0
    8.1440    7.1341   23.6575 C   0  0  0  0  0  0  0  0  0  0  0  0
    7.6792    5.7384   23.9503 C   0  0  0  0  0  0  0  0  0  0  0  0
    8.5632    4.5703   23.6279 C   0  0  0  0  0  0  0  0  0  0  0  0
    9.9121    4.7979   23.0126 C   0  0  0  0  0  0  0  0  0  0  0  0
    5.3952    0.0900   21.3607 C   0  0  0  0  0  0  0  0  0  0  0  0
    5.4961    0.4410   19.9058 C   0  0  0  0  0  0  0  0  0  0  0  0
    6.6324    0.0913   18.9912 N   0  0  0  0  0  0  0  0  0  0  0  0
    6.3170    0.6375   17.6302 N   0  0  0  0  0  0  0  0  0  0  0  0
    4.9856    1.3247   17.7038 N   0  0  0  0  0  0  0  0  0  0  0  0
    4.4783    1.2033   19.1102 N   0  0  0  0  0  0  0  0  0  0  0  0
    3.1810    1.7484   19.6296 C   0  0  0  0  0  0  0  0  0  0  0  0
  2  1  1  0  0  0
  2  3  1  0  0  0
  3  4  1  0  0  0
  4 19  1  0  0  0
 19 20  2  0  0  0
 20 21  1  0  0  0
 21 22  2  0  0  0
 22 23  1  0  0  0
 23 24  2  0  0  0
 24 25  1  0  0  0
 25 26  2  0  0  0
 26 27  1  0  0  0
 27 28  2  0  0  0
  4  5  1  0  0  0
  5  6  2  0  0  0
  5  7  1  0  0  0
  7  8  1  0  0  0
  8  9  1  0  0  0
  9 29  1  0  0  0
 29 30  1  0  0  0
 30 31  2  0  0  0
 31 32  1  0  0  0
 32 33  2  0  0  0
 33 34  1  0  0  0
 34 35  1  0  0  0
  9 10  1  0  0  0
 10 11  2  0  0  0
 10 12  1  0  0  0
 12 13  2  0  0  0
 13 14  1  0  0  0
 14 15  2  0  0  0
 15 16  1  0  0  0
 15 17  1  0  0  0
 17 18  2  0  0  0
  7  2  1  0  0  0
 34 30  1  0  0  0
 18 12  1  0  0  0
 28 19  1  0  0  0
 18  7  1  0  0  0
 28 23  1  0  0  0
M  END
> <minimizedAffinity>
-9.03090

> <CNNscore>
0.3779059052

> <CNNaffinity>
6.7404870987

> <CNN_VS>
2.5472698212

> <CNNaffinity_variance>
0.1027931720

$$$$



 35 40  0  0  0  0  0  0  0  0999 V2000
   10.7934   -1.7006   24.4165 C   0  0  0  0  0  0  0  0  0  0  0  0
    9.3533   -1.9835   24.1060 C   0  0  0  0  0  0  0  0  0  0  0  0
    8.9309   -3.3401   24.5868 C   0  0  0  0  0  0  0  0  0  0  0  0
    7.4856   -3.5283   24.2322 N   0  0  0  0  0  0  0  0  0  0  0  0
    7.0149   -2.2879   23.5322 C   0  0  0  0  0  0  0  0  0  0  0  0
    5.6325   -2.0450   23.0031 O   0  0  0  0  0  0  0  0  0  0  0  0
    8.1692   -1.3332   23.4542 C   0  0  0  0  0  0  0  0  0  0  0  0
    6.9048   -0.8135   22.8367 C   0  0  0  0  0  0  0  0  0  0  0  0
    6.8794    0.5518   22.2159 N   0  0  0  0  0  0  0  0  0  0  0  0
    8.1183    1.3973   22.2126 C   0  0  0  0  0  0  0  0  0  0  0  0
    8.0929    2.7626   21.5918 O   0  0  0  0  0  0  0  0  0  0  0  0
    9.3828    0.8777   22.8302 C   0  0  0  0  0  0  0  0  0  0  0  0
   10.6217    1.7232   22.8269 C   0  0  0  0  0  0  0  0  0  0  0  0
   11.8860    1.2035   23.4444 C   0  0  0  0  0  0  0  0  0  0  0  0
   11.9114   -0.1617   24.0652 C   0  0  0  0  0  0  0  0  0  0  0  0
   13.1758   -0.6814   24.6827 F   0  0  0  0  0  0  0  0  0  0  0  0
   10.6725   -1.0073   24.0684 C   0  0  0  0  0  0  0  0  0  0  0  0
    9.4082   -0.4876   23.4509 C   0  0  0  0  0  0  0  0  0  0  0  0
    6.6566   -4.7434   24.5259 C   0  0  0  0  0  0  0  0  0  0  0  0
    6.7702   -5.9577   23.6528 C   0  0  0  0  0  0  0  0  0  0  0  0
    5.9412   -7.1728   23.9466 N   0  0  0  0  0  0  0  0  0  0  0  0
    4.9987   -7.1735   25.1135 C   0  0  0  0  0  0  0  0  0  0  0  0
    4.8851   -5.9591   25.9866 C   0  0  0  0  0  0  0  0  0  0  0  0
    3.9426   -5.9598   27.1535 C   0  0  0  0  0  0  0  0  0  0  0  0
    3.8291   -4.7453   28.0266 C   0  0  0  0  0  0  0  0  0  0  0  0
    4.6581   -3.5303   27.7328 C   0  0  0  0  0  0  0  0  0  0  0  0
    5.6006   -3.5296   26.5659 C   0  0  0  0  0  0  0  0  0  0  0  0
    5.7141   -4.7440   25.6928 C   0  0  0  0  0  0  0  0  0  0  0  0
    5.6150    1.0715   21.5984 C   0  0  0  0  0  0  0  0  0  0  0  0
    5.4072    0.9696   20.1163 C   0  0  0  0  0  0  0  0  0  0  0  0
    4.2921    1.6014   19.3369 N   0  0  0  0  0  0  0  0  0  0  0  0
    4.4737    1.2404   17.8924 N   0  0  0  0  0  0  0  0  0  0  0  0
    5.7011    0.3855   17.7791 N   0  0  0  0  0  0  0  0  0  0  0  0
    6.2780    0.2182   19.1535 N   0  0  0  0  0  0  0  0  0  0  0  0
    7.5095   -0.5633   19.5037 C   0  0  0  0  0  0  0  0  0  0  0  0
  2  1  1  0  0  0
  2  3  1  0  0  0
  3  4  1  0  0  0
  4 19  1  0  0  0
 19 20  2  0  0  0
 20 21  1  0  0  0
 21 22  2  0  0  0
 22 23  1  0  0  0
 23 24  2  0  0  0
 24 25  1  0  0  0
 25 26  2  0  0  0
 26 27  1  0  0  0
 27 28  2  0  0  0
  4  5  1  0  0  0
  5  6  2  0  0  0
  5  7  1  0  0  0
  7  8  1  0  0  0
  8  9  1  0  0  0
  9 29  1  0  0  0
 29 30  1  0  0  0
 30 31  2  0  0  0
 31 32  1  0  0  0
 32 33  2  0  0  0
 33 34  1  0  0  0
 34 35  1  0  0  0
  9 10  1  0  0  0
 10 11  2  0  0  0
 10 12  1  0  0  0
 12 13  2  0  0  0
 13 14  1  0  0  0
 14 15  2  0  0  0
 15 16  1  0  0  0
 15 17  1  0  0  0
 17 18  2  0  0  0
  7  2  1  0  0  0
 34 30  1  0  0  0
 18 12  1  0  0  0
 28 19  1  0  0  0
 18  7  1  0  0  0
 28 23  1  0  0  0
M  END
> <minimizedAffinity>
-8.64600

> <CNNscore>
0.3468294740

> <CNNaffinity>
6.6982164383

> <CNN_VS>
2.3231389523

> <CNNaffinity_variance>
0.0677968040

$$$$



 35 40  0  0  0  0  0  0  0  0999 V2000
   10.7691   -1.9918   25.3420 C   0  0  0  0  0  0  0  0  0  0  0  0
    9.2925   -2.0253   25.0798 C   0  0  0  0  0  0  0  0  0  0  0  0
    8.6107   -3.1205   25.8450 C   0  0  0  0  0  0  0  0  0  0  0  0
    7.1474   -3.0725   25.5186 N   0  0  0  0  0  0  0  0  0  0  0  0
    6.9250   -1.9476   24.5515 C   0  0  0  0  0  0  0  0  0  0  0  0
    5.6079   -1.5413   23.9596 O   0  0  0  0  0  0  0  0  0  0  0  0
    8.2507   -1.3004   24.2803 C   0  0  0  0  0  0  0  0  0  0  0  0
    7.1042   -0.6752   23.5423 C   0  0  0  0  0  0  0  0  0  0  0  0
    7.3457    0.4920   22.6315 N   0  0  0  0  0  0  0  0  0  0  0  0
    8.7337    1.0340   22.4589 C   0  0  0  0  0  0  0  0  0  0  0  0
    8.9752    2.2011   21.5482 O   0  0  0  0  0  0  0  0  0  0  0  0
    9.8802    0.4088   23.1970 C   0  0  0  0  0  0  0  0  0  0  0  0
   11.2681    0.9508   23.0244 C   0  0  0  0  0  0  0  0  0  0  0  0
   12.4145    0.3257   23.7625 C   0  0  0  0  0  0  0  0  0  0  0  0
   12.1730   -0.8415   24.6732 C   0  0  0  0  0  0  0  0  0  0  0  0
   13.3196   -1.4667   25.4113 F   0  0  0  0  0  0  0  0  0  0  0  0
   10.7851   -1.3835   24.8458 C   0  0  0  0  0  0  0  0  0  0  0  0
    9.6387   -0.7584   24.1077 C   0  0  0  0  0  0  0  0  0  0  0  0
    6.0920   -3.9885   26.0634 C   0  0  0  0  0  0  0  0  0  0  0  0
    5.5637   -5.1100   25.2192 C   0  0  0  0  0  0  0  0  0  0  0  0
    4.5082   -6.0261   25.7640 N   0  0  0  0  0  0  0  0  0  0  0  0
    3.9811   -5.8205   27.1532 C   0  0  0  0  0  0  0  0  0  0  0  0
    4.5094   -4.6988   27.9975 C   0  0  0  0  0  0  0  0  0  0  0  0
    3.9823   -4.4933   29.3868 C   0  0  0  0  0  0  0  0  0  0  0  0
    4.5107   -3.3716   30.2310 C   0  0  0  0  0  0  0  0  0  0  0  0
    5.5661   -2.4557   29.6861 C   0  0  0  0  0  0  0  0  0  0  0  0
    6.0932   -2.6613   28.2969 C   0  0  0  0  0  0  0  0  0  0  0  0
    5.5649   -3.7828   27.4527 C   0  0  0  0  0  0  0  0  0  0  0  0
    6.1992    1.1171   21.8934 C   0  0  0  0  0  0  0  0  0  0  0  0
    6.0218    0.8594   20.4265 C   0  0  0  0  0  0  0  0  0  0  0  0
    7.0669    0.3250   19.4924 N   0  0  0  0  0  0  0  0  0  0  0  0
    6.4592    0.2261   18.1246 N   0  0  0  0  0  0  0  0  0  0  0  0
    5.0385    0.6994   18.2133 N   0  0  0  0  0  0  0  0  0  0  0  0
    4.7683    1.0908   19.6359 N   0  0  0  0  0  0  0  0  0  0  0  0
    3.4720    1.6205   20.1735 C   0  0  0  0  0  0  0  0  0  0  0  0
  2  1  1  0  0  0
  2  3  1  0  0  0
  3  4  1  0  0  0
  4 19  1  0  0  0
 19 20  2  0  0  0
 20 21  1  0  0  0
 21 22  2  0  0  0
 22 23  1  0  0  0
 23 24  2  0  0  0
 24 25  1  0  0  0
 25 26  2  0  0  0
 26 27  1  0  0  0
 27 28  2  0  0  0
  4  5  1  0  0  0
  5  6  2  0  0  0
  5  7  1  0  0  0
  7  8  1  0  0  0
  8  9  1  0  0  0
  9 29  1  0  0  0
 29 30  1  0  0  0
 30 31  2  0  0  0
 31 32  1  0  0  0
 32 33  2  0  0  0
 33 34  1  0  0  0
 34 35  1  0  0  0
  9 10  1  0  0  0
 10 11  2  0  0  0
 10 12  1  0  0  0
 12 13  2  0  0  0
 13 14  1  0  0  0
 14 15  2  0  0  0
 15 16  1  0  0  0
 15 17  1  0  0  0
 17 18  2  0  0  0
  7  2  1  0  0  0
 34 30  1  0  0  0
 18 12  1  0  0  0
 28 19  1  0  0  0
 18  7  1  0  0  0
 28 23  1  0  0  0
M  END
> <minimizedAffinity>
-9.38447

> <CNNscore>
0.3237214088

> <CNNaffinity>
6.5334825516

> <CNN_VS>
2.1150281429

> <CNNaffinity_variance>
0.0628396124

$$$$



 35 40  0  0  0  0  0  0  0  0999 V2000
   10.5555    0.0339   22.8164 C   0  0  0  0  0  0  0  0  0  0  0  0
    9.1169   -0.3129   22.5704 C   0  0  0  0  0  0  0  0  0  0  0  0
    8.5996    0.3015   21.3036 C   0  0  0  0  0  0  0  0  0  0  0  0
    7.1630   -0.1003   21.1466 N   0  0  0  0  0  0  0  0  0  0  0  0
    6.7925   -0.9631   22.3164 C   0  0  0  0  0  0  0  0  0  0  0  0
    5.4501   -1.5852   22.5629 O   0  0  0  0  0  0  0  0  0  0  0  0
    8.0001   -1.0944   23.1964 C   0  0  0  0  0  0  0  0  0  0  0  0
    6.7947   -1.8308   23.7009 C   0  0  0  0  0  0  0  0  0  0  0  0
    6.8719   -2.6073   24.9819 N   0  0  0  0  0  0  0  0  0  0  0  0
    8.1546   -2.6476   25.7584 C   0  0  0  0  0  0  0  0  0  0  0  0
    8.2319   -3.4242   27.0394 O   0  0  0  0  0  0  0  0  0  0  0  0
    9.3602   -1.9113   25.2539 C   0  0  0  0  0  0  0  0  0  0  0  0
   10.6429   -1.9515   26.0303 C   0  0  0  0  0  0  0  0  0  0  0  0
   11.8484   -1.2152   25.5258 C   0  0  0  0  0  0  0  0  0  0  0  0
   11.7712   -0.4387   24.2448 C   0  0  0  0  0  0  0  0  0  0  0  0
   12.9768    0.2977   23.7402 F   0  0  0  0  0  0  0  0  0  0  0  0
   10.4884   -0.3984   23.4683 C   0  0  0  0  0  0  0  0  0  0  0  0
    9.2830   -1.1347   23.9729 C   0  0  0  0  0  0  0  0  0  0  0  0
    6.2560    0.2917   20.0180 C   0  0  0  0  0  0  0  0  0  0  0  0
    6.4286   -0.3332   18.6655 C   0  0  0  0  0  0  0  0  0  0  0  0
    5.5217    0.0588   17.5368 N   0  0  0  0  0  0  0  0  0  0  0  0
    4.4421    1.0758   17.7609 C   0  0  0  0  0  0  0  0  0  0  0  0
    4.2695    1.7008   19.1135 C   0  0  0  0  0  0  0  0  0  0  0  0
    3.1899    2.7179   19.3376 C   0  0  0  0  0  0  0  0  0  0  0  0
    3.0174    3.3428   20.6902 C   0  0  0  0  0  0  0  0  0  0  0  0
    3.9243    2.9507   21.8187 C   0  0  0  0  0  0  0  0  0  0  0  0
    5.0039    1.9337   21.5947 C   0  0  0  0  0  0  0  0  0  0  0  0
    5.1765    1.3088   20.2421 C   0  0  0  0  0  0  0  0  0  0  0  0
    5.6663   -3.3437   25.4865 C   0  0  0  0  0  0  0  0  0  0  0  0
    5.5720   -4.8313   25.3197 C   0  0  0  0  0  0  0  0  0  0  0  0
    4.8172   -5.7724   26.2112 N   0  0  0  0  0  0  0  0  0  0  0  0
    4.9946   -7.1619   25.6747 N   0  0  0  0  0  0  0  0  0  0  0  0
    5.8591   -7.0795   24.4516 N   0  0  0  0  0  0  0  0  0  0  0  0
    6.2159   -5.6392   24.2322 N   0  0  0  0  0  0  0  0  0  0  0  0
    7.0672   -5.1013   23.1205 C   0  0  0  0  0  0  0  0  0  0  0  0
  2  1  1  0  0  0
  2  3  1  0  0  0
  3  4  1  0  0  0
  4 19  1  0  0  0
 19 20  2  0  0  0
 20 21  1  0  0  0
 21 22  2  0  0  0
 22 23  1  0  0  0
 23 24  2  0  0  0
 24 25  1  0  0  0
 25 26  2  0  0  0
 26 27  1  0  0  0
 27 28  2  0  0  0
  4  5  1  0  0  0
  5  6  2  0  0  0
  5  7  1  0  0  0
  7  8  1  0  0  0
  8  9  1  0  0  0
  9 29  1  0  0  0
 29 30  1  0  0  0
 30 31  2  0  0  0
 31 32  1  0  0  0
 32 33  2  0  0  0
 33 34  1  0  0  0
 34 35  1  0  0  0
  9 10  1  0  0  0
 10 11  2  0  0  0
 10 12  1  0  0  0
 12 13  2  0  0  0
 13 14  1  0  0  0
 14 15  2  0  0  0
 15 16  1  0  0  0
 15 17  1  0  0  0
 17 18  2  0  0  0
  7  2  1  0  0  0
 34 30  1  0  0  0
 18 12  1  0  0  0
 28 19  1  0  0  0
 18  7  1  0  0  0
 28 23  1  0  0  0
M  END
> <minimizedAffinity>
-9.56586

> <CNNscore>
0.2811202109

> <CNNaffinity>
6.5462236404

> <CNN_VS>
1.8402757645

> <CNNaffinity_variance>
0.0842455402

$$$$
