


 35 40  0  0  0  0  0  0  0  0999 V2000
   -5.7757   -5.5577  -22.9330 C   0  0  0  0  0  0  0  0  0  0  0  0
   -6.3512   -4.2492  -22.4782 C   0  0  0  0  0  0  0  0  0  0  0  0
   -5.5033   -3.5978  -21.4261 C   0  0  0  0  0  0  0  0  0  0  0  0
   -6.1574   -2.3048  -21.0387 N   0  0  0  0  0  0  0  0  0  0  0  0
   -7.4096   -2.1570  -21.8513 C   0  0  0  0  0  0  0  0  0  0  0  0
   -8.3728   -1.0090  -21.7858 O   0  0  0  0  0  0  0  0  0  0  0  0
   -7.5293   -3.3587  -22.7410 C   0  0  0  0  0  0  0  0  0  0  0  0
   -8.6478   -2.3713  -22.8957 C   0  0  0  0  0  0  0  0  0  0  0  0
   -9.7518   -2.6361  -23.8760 N   0  0  0  0  0  0  0  0  0  0  0  0
   -9.7373   -3.8883  -24.7017 C   0  0  0  0  0  0  0  0  0  0  0  0
  -10.8414   -4.1530  -25.6820 O   0  0  0  0  0  0  0  0  0  0  0  0
   -8.6188   -4.8758  -24.5470 C   0  0  0  0  0  0  0  0  0  0  0  0
   -8.6044   -6.1280  -25.3727 C   0  0  0  0  0  0  0  0  0  0  0  0
   -7.4859   -7.1154  -25.2180 C   0  0  0  0  0  0  0  0  0  0  0  0
   -6.3819   -6.8506  -24.2377 C   0  0  0  0  0  0  0  0  0  0  0  0
   -5.2634   -7.8381  -24.0830 F   0  0  0  0  0  0  0  0  0  0  0  0
   -6.3964   -5.5984  -23.4120 C   0  0  0  0  0  0  0  0  0  0  0  0
   -7.5148   -4.6110  -23.5667 C   0  0  0  0  0  0  0  0  0  0  0  0
   -5.6488   -1.3305  -20.0179 C   0  0  0  0  0  0  0  0  0  0  0  0
   -6.1025   -1.4330  -18.5919 C   0  0  0  0  0  0  0  0  0  0  0  0
   -5.5939   -0.4588  -17.5711 N   0  0  0  0  0  0  0  0  0  0  0  0
   -4.6314    0.6180  -17.9763 C   0  0  0  0  0  0  0  0  0  0  0  0
   -4.1777    0.7205  -19.4024 C   0  0  0  0  0  0  0  0  0  0  0  0
   -3.2152    1.7974  -19.8076 C   0  0  0  0  0  0  0  0  0  0  0  0
   -2.7615    1.8998  -21.2337 C   0  0  0  0  0  0  0  0  0  0  0  0
   -3.2702    0.9256  -22.2544 C   0  0  0  0  0  0  0  0  0  0  0  0
   -4.2326   -0.1512  -21.8492 C   0  0  0  0  0  0  0  0  0  0  0  0
   -4.6863   -0.2537  -20.4232 C   0  0  0  0  0  0  0  0  0  0  0  0
  -10.8703   -1.6486  -24.0306 C   0  0  0  0  0  0  0  0  0  0  0  0
  -12.1638   -1.8602  -23.3013 C   0  0  0  0  0  0  0  0  0  0  0  0
  -12.5704   -3.1053  -22.5703 N   0  0  0  0  0  0  0  0  0  0  0  0
  -13.9357   -2.8785  -21.9920 N   0  0  0  0  0  0  0  0  0  0  0  0
  -14.3730   -1.4931  -22.3657 N   0  0  0  0  0  0  0  0  0  0  0  0
  -13.2779   -0.8638  -23.1749 N   0  0  0  0  0  0  0  0  0  0  0  0
  -13.2941    0.5191  -23.7556 C   0  0  0  0  0  0  0  0  0  0  0  0
  2  1  1  0  0  0
  2  3  1  0  0  0
  3  4  1  0  0  0
  4 19  1  0  0  0
 19 20  2  0  0  0
 20 21  1  0  0  0
 21 22  2  0  0  0
 22 23  1  0  0  0
 23 24  2  0  0  0
 24 25  1  0  0  0
 25 26  2  0  0  0
 26 27  1  0  0  0
 27 28  2  0  0  0
  4  5  1  0  0  0
  5  6  2  0  0  0
  5  7  1  0  0  0
  7  8  1  0  0  0
  8  9  1  0  0  0
  9 29  1  0  0  0
 29 30  1  0  0  0
 30 31  2  0  0  0
 31 32  1  0  0  0
 32 33  2  0  0  0
 33 34  1  0  0  0
 34 35  1  0  0  0
  9 10  1  0  0  0
 10 11  2  0  0  0
 10 12  1  0  0  0
 12 13  2  0  0  0
 13 14  1  0  0  0
 14 15  2  0  0  0
 15 16  1  0  0  0
 15 17  1  0  0  0
 17 18  2  0  0  0
  7  2  1  0  0  0
 34 30  1  0  0  0
 18 12  1  0  0  0
 28 19  1  0  0  0
 18  7  1  0  0  0
 28 23  1  0  0  0
M  END
> <minimizedAffinity>
-9.37443

> <CNNscore>
0.6181448698

> <CNNaffinity>
6.8251609802

> <CNN_VS>
4.2189383507

> <CNNaffinity_variance>
0.2430156171

$$$$



 35 40  0  0  0  0  0  0  0  0999 V2000
   -9.6203   -2.5588  -23.6898 C   0  0  0  0  0  0  0  0  0  0  0  0
   -8.3484   -2.8310  -22.9425 C   0  0  0  0  0  0  0  0  0  0  0  0
   -8.0255   -1.7386  -21.9665 C   0  0  0  0  0  0  0  0  0  0  0  0
   -6.7453   -2.0998  -21.2734 N   0  0  0  0  0  0  0  0  0  0  0  0
   -6.2770   -3.4154  -21.8210 C   0  0  0  0  0  0  0  0  0  0  0  0
   -5.0357   -4.1502  -21.4093 O   0  0  0  0  0  0  0  0  0  0  0  0
   -7.2677   -3.8673  -22.8526 C   0  0  0  0  0  0  0  0  0  0  0  0
   -6.1208   -4.8131  -22.6529 C   0  0  0  0  0  0  0  0  0  0  0  0
   -6.0444   -6.0790  -23.4539 N   0  0  0  0  0  0  0  0  0  0  0  0
   -7.1148   -6.3991  -24.4546 C   0  0  0  0  0  0  0  0  0  0  0  0
   -7.0384   -7.6651  -25.2556 O   0  0  0  0  0  0  0  0  0  0  0  0
   -8.2619   -5.4533  -24.6544 C   0  0  0  0  0  0  0  0  0  0  0  0
   -9.3323   -5.7734  -25.6551 C   0  0  0  0  0  0  0  0  0  0  0  0
  -10.4793   -4.8276  -25.8549 C   0  0  0  0  0  0  0  0  0  0  0  0
  -10.5557   -3.5617  -25.0539 C   0  0  0  0  0  0  0  0  0  0  0  0
  -11.7028   -2.6159  -25.2537 F   0  0  0  0  0  0  0  0  0  0  0  0
   -9.4853   -3.2416  -24.0531 C   0  0  0  0  0  0  0  0  0  0  0  0
   -8.3383   -4.1874  -23.8534 C   0  0  0  0  0  0  0  0  0  0  0  0
   -6.0546   -1.2881  -20.2180 C   0  0  0  0  0  0  0  0  0  0  0  0
   -6.4725   -1.4126  -18.7828 C   0  0  0  0  0  0  0  0  0  0  0  0
   -5.7818   -0.6008  -17.7274 N   0  0  0  0  0  0  0  0  0  0  0  0
   -4.6732    0.3355  -18.1072 C   0  0  0  0  0  0  0  0  0  0  0  0
   -4.2553    0.4600  -19.5424 C   0  0  0  0  0  0  0  0  0  0  0  0
   -3.1466    1.3964  -19.9222 C   0  0  0  0  0  0  0  0  0  0  0  0
   -2.7287    1.5209  -21.3575 C   0  0  0  0  0  0  0  0  0  0  0  0
   -3.4194    0.7091  -22.4128 C   0  0  0  0  0  0  0  0  0  0  0  0
   -4.5280   -0.2272  -22.0330 C   0  0  0  0  0  0  0  0  0  0  0  0
   -4.9459   -0.3517  -20.5979 C   0  0  0  0  0  0  0  0  0  0  0  0
   -4.8973   -7.0249  -23.2541 C   0  0  0  0  0  0  0  0  0  0  0  0
   -3.5636   -6.7275  -23.8726 C   0  0  0  0  0  0  0  0  0  0  0  0
   -2.2247   -6.9799  -23.2451 N   0  0  0  0  0  0  0  0  0  0  0  0
   -1.1682   -6.5340  -24.2120 N   0  0  0  0  0  0  0  0  0  0  0  0
   -1.8541   -6.0060  -25.4371 N   0  0  0  0  0  0  0  0  0  0  0  0
   -3.3345   -6.1256  -25.2273 N   0  0  0  0  0  0  0  0  0  0  0  0
   -4.3989   -5.7154  -26.2013 C   0  0  0  0  0  0  0  0  0  0  0  0
  2  1  1  0  0  0
  2  3  1  0  0  0
  3  4  1  0  0  0
  4 19  1  0  0  0
 19 20  2  0  0  0
 20 21  1  0  0  0
 21 22  2  0  0  0
 22 23  1  0  0  0
 23 24  2  0  0  0
 24 25  1  0  0  0
 25 26  2  0  0  0
 26 27  1  0  0  0
 27 28  2  0  0  0
  4  5  1  0  0  0
  5  6  2  0  0  0
  5  7  1  0  0  0
  7  8  1  0  0  0
  8  9  1  0  0  0
  9 29  1  0  0  0
 29 30  1  0  0  0
 30 31  2  0  0  0
 31 32  1  0  0  0
 32 33  2  0  0  0
 33 34  1  0  0  0
 34 35  1  0  0  0
  9 10  1  0  0  0
 10 11  2  0  0  0
 10 12  1  0  0  0
 12 13  2  0  0  0
 13 14  1  0  0  0
 14 15  2  0  0  0
 15 16  1  0  0  0
 15 17  1  0  0  0
 17 18  2  0  0  0
  7  2  1  0  0  0
 34 30  1  0  0  0
 18 12  1  0  0  0
 28 19  1  0  0  0
 18  7  1  0  0  0
 28 23  1  0  0  0
M  END
> <minimizedAffinity>
-8.52898

> <CNNscore>
0.5627093315

> <CNNaffinity>
6.5875267982

> <CNN_VS>
3.7068626881

> <CNNaffinity_variance>
0.1039275378

$$$$



 35 40  0  0  0  0  0  0  0  0999 V2000
  -10.9188   -2.6245  -24.5018 C   0  0  0  0  0  0  0  0  0  0  0  0
  -10.4869   -1.3198  -23.9007 C   0  0  0  0  0  0  0  0  0  0  0  0
  -11.5708   -0.2850  -23.9658 C   0  0  0  0  0  0  0  0  0  0  0  0
  -11.0463    0.9754  -23.3444 N   0  0  0  0  0  0  0  0  0  0  0  0
   -9.6382    0.7196  -22.8952 C   0  0  0  0  0  0  0  0  0  0  0  0
   -8.7345    1.7087  -22.2206 O   0  0  0  0  0  0  0  0  0  0  0  0
   -9.2924   -0.6990  -23.2390 C   0  0  0  0  0  0  0  0  0  0  0  0
   -8.1831    0.0533  -22.5656 C   0  0  0  0  0  0  0  0  0  0  0  0
   -6.8730   -0.6252  -22.2952 N   0  0  0  0  0  0  0  0  0  0  0  0
   -6.6722   -2.0560  -22.6981 C   0  0  0  0  0  0  0  0  0  0  0  0
   -5.3620   -2.7345  -22.4277 O   0  0  0  0  0  0  0  0  0  0  0  0
   -7.7815   -2.8084  -23.3716 C   0  0  0  0  0  0  0  0  0  0  0  0
   -7.5807   -4.2392  -23.7745 C   0  0  0  0  0  0  0  0  0  0  0  0
   -8.6900   -4.9915  -24.4479 C   0  0  0  0  0  0  0  0  0  0  0  0
  -10.0001   -4.3129  -24.7183 C   0  0  0  0  0  0  0  0  0  0  0  0
  -11.1094   -5.0653  -25.3917 F   0  0  0  0  0  0  0  0  0  0  0  0
  -10.2009   -2.8821  -24.3154 C   0  0  0  0  0  0  0  0  0  0  0  0
   -9.0916   -2.1298  -23.6420 C   0  0  0  0  0  0  0  0  0  0  0  0
  -11.7979    2.2652  -23.1979 C   0  0  0  0  0  0  0  0  0  0  0  0
  -12.8962    2.3822  -22.1831 C   0  0  0  0  0  0  0  0  0  0  0  0
  -13.6478    3.6720  -22.0366 N   0  0  0  0  0  0  0  0  0  0  0  0
  -13.3010    4.8448  -22.9050 C   0  0  0  0  0  0  0  0  0  0  0  0
  -12.2027    4.7279  -23.9198 C   0  0  0  0  0  0  0  0  0  0  0  0
  -11.8559    5.9009  -24.7882 C   0  0  0  0  0  0  0  0  0  0  0  0
  -10.7575    5.7838  -25.8031 C   0  0  0  0  0  0  0  0  0  0  0  0
  -10.0060    4.4940  -25.9495 C   0  0  0  0  0  0  0  0  0  0  0  0
  -10.3528    3.3212  -25.0811 C   0  0  0  0  0  0  0  0  0  0  0  0
  -11.4511    3.4381  -24.0663 C   0  0  0  0  0  0  0  0  0  0  0  0
   -5.7637    0.1271  -21.6218 C   0  0  0  0  0  0  0  0  0  0  0  0
   -5.6990    0.1869  -20.1244 C   0  0  0  0  0  0  0  0  0  0  0  0
   -6.7015   -0.3986  -19.1745 N   0  0  0  0  0  0  0  0  0  0  0  0
   -6.2426   -0.1048  -17.7770 N   0  0  0  0  0  0  0  0  0  0  0  0
   -4.9563    0.6623  -17.8632 N   0  0  0  0  0  0  0  0  0  0  0  0
   -4.6204    0.8425  -19.3140 N   0  0  0  0  0  0  0  0  0  0  0  0
   -3.4172    1.5535  -19.8586 C   0  0  0  0  0  0  0  0  0  0  0  0
  2  1  1  0  0  0
  2  3  1  0  0  0
  3  4  1  0  0  0
  4 19  1  0  0  0
 19 20  2  0  0  0
 20 21  1  0  0  0
 21 22  2  0  0  0
 22 23  1  0  0  0
 23 24  2  0  0  0
 24 25  1  0  0  0
 25 26  2  0  0  0
 26 27  1  0  0  0
 27 28  2  0  0  0
  4  5  1  0  0  0
  5  6  2  0  0  0
  5  7  1  0  0  0
  7  8  1  0  0  0
  8  9  1  0  0  0
  9 29  1  0  0  0
 29 30  1  0  0  0
 30 31  2  0  0  0
 31 32  1  0  0  0
 32 33  2  0  0  0
 33 34  1  0  0  0
 34 35  1  0  0  0
  9 10  1  0  0  0
 10 11  2  0  0  0
 10 12  1  0  0  0
 12 13  2  0  0  0
 13 14  1  0  0  0
 14 15  2  0  0  0
 15 16  1  0  0  0
 15 17  1  0  0  0
 17 18  2  0  0  0
  7  2  1  0  0  0
 34 30  1  0  0  0
 18 12  1  0  0  0
 28 19  1  0  0  0
 18  7  1  0  0  0
 28 23  1  0  0  0
M  END
> <minimizedAffinity>
-8.82515

> <CNNscore>
0.5235245824

> <CNNaffinity>
6.6607298851

> <CNN_VS>
3.4870557785

> <CNNaffinity_variance>
0.0397730321

$$$$



 35 40  0  0  0  0  0  0  0  0999 V2000
   -7.2722    0.0202  -21.2430 C   0  0  0  0  0  0  0  0  0  0  0  0
   -8.4938   -0.0771  -22.1081 C   0  0  0  0  0  0  0  0  0  0  0  0
   -9.2540    1.2152  -22.1542 C   0  0  0  0  0  0  0  0  0  0  0  0
  -10.4498    1.0183  -23.0381 N   0  0  0  0  0  0  0  0  0  0  0  0
  -10.4287   -0.3957  -23.5383 C   0  0  0  0  0  0  0  0  0  0  0  0
  -11.4390   -1.0226  -24.4527 O   0  0  0  0  0  0  0  0  0  0  0  0
   -9.2198   -1.0727  -22.9636 C   0  0  0  0  0  0  0  0  0  0  0  0
  -10.0500   -1.9546  -23.8484 C   0  0  0  0  0  0  0  0  0  0  0  0
   -9.6392   -3.3774  -24.0872 N   0  0  0  0  0  0  0  0  0  0  0  0
   -8.3982   -3.9182  -23.4411 C   0  0  0  0  0  0  0  0  0  0  0  0
   -7.9874   -5.3409  -23.6799 O   0  0  0  0  0  0  0  0  0  0  0  0
   -7.5680   -3.0363  -22.5562 C   0  0  0  0  0  0  0  0  0  0  0  0
   -6.3270   -3.5771  -21.9102 C   0  0  0  0  0  0  0  0  0  0  0  0
   -5.4968   -2.6952  -21.0253 C   0  0  0  0  0  0  0  0  0  0  0  0
   -5.9076   -1.2724  -20.7866 C   0  0  0  0  0  0  0  0  0  0  0  0
   -5.0773   -0.3905  -19.9017 F   0  0  0  0  0  0  0  0  0  0  0  0
   -7.1486   -0.7316  -21.4326 C   0  0  0  0  0  0  0  0  0  0  0  0
   -7.9787   -1.6135  -22.3174 C   0  0  0  0  0  0  0  0  0  0  0  0
  -11.4851    2.0535  -23.3644 C   0  0  0  0  0  0  0  0  0  0  0  0
  -12.9186    1.8260  -22.9861 C   0  0  0  0  0  0  0  0  0  0  0  0
  -13.9538    2.8613  -23.3125 N   0  0  0  0  0  0  0  0  0  0  0  0
  -13.5554    4.1241  -24.0172 C   0  0  0  0  0  0  0  0  0  0  0  0
  -12.1219    4.3516  -24.3956 C   0  0  0  0  0  0  0  0  0  0  0  0
  -11.7235    5.6145  -25.1003 C   0  0  0  0  0  0  0  0  0  0  0  0
  -10.2900    5.8419  -25.4787 C   0  0  0  0  0  0  0  0  0  0  0  0
   -9.2548    4.8066  -25.1523 C   0  0  0  0  0  0  0  0  0  0  0  0
   -9.6532    3.5439  -24.4475 C   0  0  0  0  0  0  0  0  0  0  0  0
  -11.0866    3.3163  -24.0692 C   0  0  0  0  0  0  0  0  0  0  0  0
  -10.4694   -4.2593  -24.9720 C   0  0  0  0  0  0  0  0  0  0  0  0
   -9.8536   -4.9050  -26.1777 C   0  0  0  0  0  0  0  0  0  0  0  0
  -10.1191   -6.2991  -26.6636 N   0  0  0  0  0  0  0  0  0  0  0  0
   -9.2937   -6.5257  -27.8954 N   0  0  0  0  0  0  0  0  0  0  0  0
   -8.5180   -5.2716  -28.1708 N   0  0  0  0  0  0  0  0  0  0  0  0
   -8.8641   -4.2700  -27.1092 N   0  0  0  0  0  0  0  0  0  0  0  0
   -8.3167   -2.8778  -26.9985 C   0  0  0  0  0  0  0  0  0  0  0  0
  2  1  1  0  0  0
  2  3  1  0  0  0
  3  4  1  0  0  0
  4 19  1  0  0  0
 19 20  2  0  0  0
 20 21  1  0  0  0
 21 22  2  0  0  0
 22 23  1  0  0  0
 23 24  2  0  0  0
 24 25  1  0  0  0
 25 26  2  0  0  0
 26 27  1  0  0  0
 27 28  2  0  0  0
  4  5  1  0  0  0
  5  6  2  0  0  0
  5  7  1  0  0  0
  7  8  1  0  0  0
  8  9  1  0  0  0
  9 29  1  0  0  0
 29 30  1  0  0  0
 30 31  2  0  0  0
 31 32  1  0  0  0
 32 33  2  0  0  0
 33 34  1  0  0  0
 34 35  1  0  0  0
  9 10  1  0  0  0
 10 11  2  0  0  0
 10 12  1  0  0  0
 12 13  2  0  0  0
 13 14  1  0  0  0
 14 15  2  0  0  0
 15 16  1  0  0  0
 15 17  1  0  0  0
 17 18  2  0  0  0
  7  2  1  0  0  0
 34 30  1  0  0  0
 18 12  1  0  0  0
 28 19  1  0  0  0
 18  7  1  0  0  0
 28 23  1  0  0  0
M  END
> <minimizedAffinity>
-9.23579

> <CNNscore>
0.4270003438

> <CNNaffinity>
6.2873210907

> <CNN_VS>
2.6846883297

> <CNNaffinity_variance>
0.3752458692

$$$$



 35 40  0  0  0  0  0  0  0  0999 V2000
  -10.2642   -4.3756  -25.4456 C   0  0  0  0  0  0  0  0  0  0  0  0
   -9.7834   -3.2425  -24.5881 C   0  0  0  0  0  0  0  0  0  0  0  0
  -10.6377   -2.0193  -24.7424 C   0  0  0  0  0  0  0  0  0  0  0  0
  -10.0802   -0.9492  -23.8514 N   0  0  0  0  0  0  0  0  0  0  0  0
   -8.8814   -1.5111  -23.1464 C   0  0  0  0  0  0  0  0  0  0  0  0
   -8.0176   -0.7833  -22.1593 O   0  0  0  0  0  0  0  0  0  0  0  0
   -8.6979   -2.9284  -23.6017 C   0  0  0  0  0  0  0  0  0  0  0  0
   -7.6754   -2.4709  -22.6041 C   0  0  0  0  0  0  0  0  0  0  0  0
   -6.5960   -3.4094  -22.1524 N   0  0  0  0  0  0  0  0  0  0  0  0
   -6.5390   -4.8054  -22.6982 C   0  0  0  0  0  0  0  0  0  0  0  0
   -5.4596   -5.7439  -22.2464 O   0  0  0  0  0  0  0  0  0  0  0  0
   -7.5616   -5.2630  -23.6958 C   0  0  0  0  0  0  0  0  0  0  0  0
   -7.5046   -6.6590  -24.2416 C   0  0  0  0  0  0  0  0  0  0  0  0
   -8.5271   -7.1165  -25.2391 C   0  0  0  0  0  0  0  0  0  0  0  0
   -9.6065   -6.1780  -25.6909 C   0  0  0  0  0  0  0  0  0  0  0  0
  -10.6291   -6.6355  -26.6885 F   0  0  0  0  0  0  0  0  0  0  0  0
   -9.6635   -4.7820  -25.1451 C   0  0  0  0  0  0  0  0  0  0  0  0
   -8.6410   -4.3245  -24.1476 C   0  0  0  0  0  0  0  0  0  0  0  0
  -10.6258    0.4391  -23.6931 C   0  0  0  0  0  0  0  0  0  0  0  0
  -11.8227    0.6797  -22.8217 C   0  0  0  0  0  0  0  0  0  0  0  0
  -12.3683    2.0680  -22.6634 N   0  0  0  0  0  0  0  0  0  0  0  0
  -11.7169    3.2156  -23.3765 C   0  0  0  0  0  0  0  0  0  0  0  0
  -10.5199    2.9750  -24.2479 C   0  0  0  0  0  0  0  0  0  0  0  0
   -9.8685    4.1227  -24.9611 C   0  0  0  0  0  0  0  0  0  0  0  0
   -8.6715    3.8820  -25.8325 C   0  0  0  0  0  0  0  0  0  0  0  0
   -8.1260    2.4937  -25.9907 C   0  0  0  0  0  0  0  0  0  0  0  0
   -8.7774    1.3461  -25.2776 C   0  0  0  0  0  0  0  0  0  0  0  0
   -9.9743    1.5867  -24.4062 C   0  0  0  0  0  0  0  0  0  0  0  0
   -5.5734   -2.9519  -21.1548 C   0  0  0  0  0  0  0  0  0  0  0  0
   -5.8760   -1.7971  -20.2466 C   0  0  0  0  0  0  0  0  0  0  0  0
   -6.8235   -1.8145  -19.0838 N   0  0  0  0  0  0  0  0  0  0  0  0
   -6.8173   -0.4503  -18.4603 N   0  0  0  0  0  0  0  0  0  0  0  0
   -5.8660    0.4103  -19.2377 N   0  0  0  0  0  0  0  0  0  0  0  0
   -5.2842   -0.4220  -20.3417 N   0  0  0  0  0  0  0  0  0  0  0  0
   -4.2860    0.0396  -21.3617 C   0  0  0  0  0  0  0  0  0  0  0  0
  2  1  1  0  0  0
  2  3  1  0  0  0
  3  4  1  0  0  0
  4 19  1  0  0  0
 19 20  2  0  0  0
 20 21  1  0  0  0
 21 22  2  0  0  0
 22 23  1  0  0  0
 23 24  2  0  0  0
 24 25  1  0  0  0
 25 26  2  0  0  0
 26 27  1  0  0  0
 27 28  2  0  0  0
  4  5  1  0  0  0
  5  6  2  0  0  0
  5  7  1  0  0  0
  7  8  1  0  0  0
  8  9  1  0  0  0
  9 29  1  0  0  0
 29 30  1  0  0  0
 30 31  2  0  0  0
 31 32  1  0  0  0
 32 33  2  0  0  0
 33 34  1  0  0  0
 34 35  1  0  0  0
  9 10  1  0  0  0
 10 11  2  0  0  0
 10 12  1  0  0  0
 12 13  2  0  0  0
 13 14  1  0  0  0
 14 15  2  0  0  0
 15 16  1  0  0  0
 15 17  1  0  0  0
 17 18  2  0  0  0
  7  2  1  0  0  0
 34 30  1  0  0  0
 18 12  1  0  0  0
 28 19  1  0  0  0
 18  7  1  0  0  0
 28 23  1  0  0  0
M  END
> <minimizedAffinity>
-8.24404

> <CNNscore>
0.4243084192

> <CNNaffinity>
6.6920404434

> <CNN_VS>
2.8394889832

> <CNNaffinity_variance>
0.1544868201

$$$$



 35 40  0  0  0  0  0  0  0  0999 V2000
   -9.4031   -3.8881  -25.3004 C   0  0  0  0  0  0  0  0  0  0  0  0
   -8.8478   -2.7545  -24.4900 C   0  0  0  0  0  0  0  0  0  0  0  0
   -9.4606   -1.4392  -24.8702 C   0  0  0  0  0  0  0  0  0  0  0  0
   -8.8450   -0.3753  -24.0104 N   0  0  0  0  0  0  0  0  0  0  0  0
   -7.8518   -1.0331  -23.0989 C   0  0  0  0  0  0  0  0  0  0  0  0
   -7.0055   -0.3418  -22.0713 O   0  0  0  0  0  0  0  0  0  0  0  0
   -7.8536   -2.5035  -23.3953 C   0  0  0  0  0  0  0  0  0  0  0  0
   -6.8984   -2.1009  -22.3111 C   0  0  0  0  0  0  0  0  0  0  0  0
   -6.0541   -3.1382  -21.6320 N   0  0  0  0  0  0  0  0  0  0  0  0
   -6.1651   -4.5782  -22.0370 C   0  0  0  0  0  0  0  0  0  0  0  0
   -5.3208   -5.6155  -21.3579 O   0  0  0  0  0  0  0  0  0  0  0  0
   -7.1203   -4.9809  -23.1212 C   0  0  0  0  0  0  0  0  0  0  0  0
   -7.2313   -6.4209  -23.5262 C   0  0  0  0  0  0  0  0  0  0  0  0
   -8.1865   -6.8236  -24.6104 C   0  0  0  0  0  0  0  0  0  0  0  0
   -9.0308   -5.7862  -25.2895 C   0  0  0  0  0  0  0  0  0  0  0  0
   -9.9861   -6.1890  -26.3736 F   0  0  0  0  0  0  0  0  0  0  0  0
   -8.9198   -4.3463  -24.8845 C   0  0  0  0  0  0  0  0  0  0  0  0
   -7.9646   -3.9436  -23.8003 C   0  0  0  0  0  0  0  0  0  0  0  0
   -9.1661    1.0892  -24.0545 C   0  0  0  0  0  0  0  0  0  0  0  0
   -8.0731    2.0901  -24.2853 C   0  0  0  0  0  0  0  0  0  0  0  0
   -8.3942    3.5547  -24.3293 N   0  0  0  0  0  0  0  0  0  0  0  0
   -9.8085    4.0183  -24.1425 C   0  0  0  0  0  0  0  0  0  0  0  0
  -10.9016    3.0173  -23.9116 C   0  0  0  0  0  0  0  0  0  0  0  0
  -12.3159    3.4810  -23.7248 C   0  0  0  0  0  0  0  0  0  0  0  0
  -13.4089    2.4800  -23.4939 C   0  0  0  0  0  0  0  0  0  0  0  0
  -13.0877    1.0155  -23.4499 C   0  0  0  0  0  0  0  0  0  0  0  0
  -11.6735    0.5519  -23.6367 C   0  0  0  0  0  0  0  0  0  0  0  0
  -10.5804    1.5528  -23.8676 C   0  0  0  0  0  0  0  0  0  0  0  0
   -5.0988   -2.7355  -20.5479 C   0  0  0  0  0  0  0  0  0  0  0  0
   -5.4127   -1.5603  -19.6702 C   0  0  0  0  0  0  0  0  0  0  0  0
   -6.3399   -1.5631  -18.4911 N   0  0  0  0  0  0  0  0  0  0  0  0
   -6.3547   -0.1805  -17.9097 N   0  0  0  0  0  0  0  0  0  0  0  0
   -5.4366    0.6769  -18.7295 N   0  0  0  0  0  0  0  0  0  0  0  0
   -4.8544   -0.1759  -19.8175 N   0  0  0  0  0  0  0  0  0  0  0  0
   -3.8843    0.2764  -20.8684 C   0  0  0  0  0  0  0  0  0  0  0  0
  2  1  1  0  0  0
  2  3  1  0  0  0
  3  4  1  0  0  0
  4 19  1  0  0  0
 19 20  2  0  0  0
 20 21  1  0  0  0
 21 22  2  0  0  0
 22 23  1  0  0  0
 23 24  2  0  0  0
 24 25  1  0  0  0
 25 26  2  0  0  0
 26 27  1  0  0  0
 27 28  2  0  0  0
  4  5  1  0  0  0
  5  6  2  0  0  0
  5  7  1  0  0  0
  7  8  1  0  0  0
  8  9  1  0  0  0
  9 29  1  0  0  0
 29 30  1  0  0  0
 30 31  2  0  0  0
 31 32  1  0  0  0
 32 33  2  0  0  0
 33 34  1  0  0  0
 34 35  1  0  0  0
  9 10  1  0  0  0
 10 11  2  0  0  0
 10 12  1  0  0  0
 12 13  2  0  0  0
 13 14  1  0  0  0
 14 15  2  0  0  0
 15 16  1  0  0  0
 15 17  1  0  0  0
 17 18  2  0  0  0
  7  2  1  0  0  0
 34 30  1  0  0  0
 18 12  1  0  0  0
 28 19  1  0  0  0
 18  7  1  0  0  0
 28 23  1  0  0  0
M  END
> <minimizedAffinity>
-9.00931

> <CNNscore>
0.4068615735

> <CNNaffinity>
6.6276030540

> <CNN_VS>
2.6965169907

> <CNNaffinity_variance>
0.0721518099

$$$$



 35 40  0  0  0  0  0  0  0  0999 V2000
   -7.2435   -0.3502  -21.1165 C   0  0  0  0  0  0  0  0  0  0  0  0
   -8.4008   -0.4538  -22.0652 C   0  0  0  0  0  0  0  0  0  0  0  0
   -9.1932    0.8184  -22.1260 C   0  0  0  0  0  0  0  0  0  0  0  0
  -10.3206    0.6164  -23.0945 N   0  0  0  0  0  0  0  0  0  0  0  0
  -10.2250   -0.7806  -23.6323 C   0  0  0  0  0  0  0  0  0  0  0  0
  -11.1530   -1.4063  -24.6310 O   0  0  0  0  0  0  0  0  0  0  0  0
   -9.0385   -1.4420  -22.9962 C   0  0  0  0  0  0  0  0  0  0  0  0
   -9.7814   -2.3186  -23.9604 C   0  0  0  0  0  0  0  0  0  0  0  0
   -9.3146   -3.7219  -24.2112 N   0  0  0  0  0  0  0  0  0  0  0  0
   -8.1048   -4.2486  -23.4978 C   0  0  0  0  0  0  0  0  0  0  0  0
   -7.6379   -5.6518  -23.7486 O   0  0  0  0  0  0  0  0  0  0  0  0
   -7.3617   -3.3720  -22.5336 C   0  0  0  0  0  0  0  0  0  0  0  0
   -6.1519   -3.8987  -21.8203 C   0  0  0  0  0  0  0  0  0  0  0  0
   -5.4090   -3.0222  -20.8561 C   0  0  0  0  0  0  0  0  0  0  0  0
   -5.8759   -1.6189  -20.6053 C   0  0  0  0  0  0  0  0  0  0  0  0
   -5.1328   -0.7423  -19.6411 F   0  0  0  0  0  0  0  0  0  0  0  0
   -7.0857   -1.0922  -21.3186 C   0  0  0  0  0  0  0  0  0  0  0  0
   -7.8286   -1.9687  -22.2828 C   0  0  0  0  0  0  0  0  0  0  0  0
  -11.3610    1.6329  -23.4609 C   0  0  0  0  0  0  0  0  0  0  0  0
  -12.7513    1.5150  -22.9105 C   0  0  0  0  0  0  0  0  0  0  0  0
  -13.7917    2.5315  -23.2769 N   0  0  0  0  0  0  0  0  0  0  0  0
  -13.4417    3.6659  -24.1937 C   0  0  0  0  0  0  0  0  0  0  0  0
  -12.0514    3.7838  -24.7442 C   0  0  0  0  0  0  0  0  0  0  0  0
  -11.7014    4.9182  -25.6611 C   0  0  0  0  0  0  0  0  0  0  0  0
  -10.3110    5.0360  -26.2116 C   0  0  0  0  0  0  0  0  0  0  0  0
   -9.2707    4.0195  -25.8451 C   0  0  0  0  0  0  0  0  0  0  0  0
   -9.6207    2.8851  -24.9283 C   0  0  0  0  0  0  0  0  0  0  0  0
  -11.0110    2.7673  -24.3778 C   0  0  0  0  0  0  0  0  0  0  0  0
  -10.0576   -4.5984  -25.1754 C   0  0  0  0  0  0  0  0  0  0  0  0
   -9.3268   -5.2536  -26.3097 C   0  0  0  0  0  0  0  0  0  0  0  0
   -8.6884   -4.5502  -27.4706 N   0  0  0  0  0  0  0  0  0  0  0  0
   -8.0732   -5.5890  -28.3607 N   0  0  0  0  0  0  0  0  0  0  0  0
   -8.3313   -6.9345  -27.7498 N   0  0  0  0  0  0  0  0  0  0  0  0
   -9.1061   -6.7272  -26.4823 N   0  0  0  0  0  0  0  0  0  0  0  0
   -9.5774   -7.8043  -25.5509 C   0  0  0  0  0  0  0  0  0  0  0  0
  2  1  1  0  0  0
  2  3  1  0  0  0
  3  4  1  0  0  0
  4 19  1  0  0  0
 19 20  2  0  0  0
 20 21  1  0  0  0
 21 22  2  0  0  0
 22 23  1  0  0  0
 23 24  2  0  0  0
 24 25  1  0  0  0
 25 26  2  0  0  0
 26 27  1  0  0  0
 27 28  2  0  0  0
  4  5  1  0  0  0
  5  6  2  0  0  0
  5  7  1  0  0  0
  7  8  1  0  0  0
  8  9  1  0  0  0
  9 29  1  0  0  0
 29 30  1  0  0  0
 30 31  2  0  0  0
 31 32  1  0  0  0
 32 33  2  0  0  0
 33 34  1  0  0  0
 34 35  1  0  0  0
  9 10  1  0  0  0
 10 11  2  0  0  0
 10 12  1  0  0  0
 12 13  2  0  0  0
 13 14  1  0  0  0
 14 15  2  0  0  0
 15 16  1  0  0  0
 15 17  1  0  0  0
 17 18  2  0  0  0
  7  2  1  0  0  0
 34 30  1  0  0  0
 18 12  1  0  0  0
 28 19  1  0  0  0
 18  7  1  0  0  0
 28 23  1  0  0  0
M  END
> <minimizedAffinity>
-8.84035

> <CNNscore>
0.3596932292

> <CNNaffinity>
6.2343702316

> <CNN_VS>
2.2424607277

> <CNNaffinity_variance>
0.3337388635

$$$$



 35 40  0  0  0  0  0  0  0  0999 V2000
   -5.8053   -5.5150  -23.0692 C   0  0  0  0  0  0  0  0  0  0  0  0
   -6.4093   -4.2420  -22.5545 C   0  0  0  0  0  0  0  0  0  0  0  0
   -5.5450   -3.5897  -21.5164 C   0  0  0  0  0  0  0  0  0  0  0  0
   -6.2295   -2.3331  -21.0665 N   0  0  0  0  0  0  0  0  0  0  0  0
   -7.5167   -2.2088  -21.8265 C   0  0  0  0  0  0  0  0  0  0  0  0
   -8.5171   -1.0994  -21.6907 O   0  0  0  0  0  0  0  0  0  0  0  0
   -7.6278   -3.3886  -22.7462 C   0  0  0  0  0  0  0  0  0  0  0  0
   -8.7860   -2.4391  -22.8292 C   0  0  0  0  0  0  0  0  0  0  0  0
   -9.9171   -2.7167  -23.7745 N   0  0  0  0  0  0  0  0  0  0  0  0
   -9.8899   -3.9438  -24.6368 C   0  0  0  0  0  0  0  0  0  0  0  0
  -11.0210   -4.2213  -25.5821 O   0  0  0  0  0  0  0  0  0  0  0  0
   -8.7316   -4.8933  -24.5538 C   0  0  0  0  0  0  0  0  0  0  0  0
   -8.7044   -6.1203  -25.4161 C   0  0  0  0  0  0  0  0  0  0  0  0
   -7.5462   -7.0698  -25.3330 C   0  0  0  0  0  0  0  0  0  0  0  0
   -6.4151   -6.7922  -24.3877 C   0  0  0  0  0  0  0  0  0  0  0  0
   -5.2568   -7.7417  -24.3047 F   0  0  0  0  0  0  0  0  0  0  0  0
   -6.4423   -5.5652  -23.5254 C   0  0  0  0  0  0  0  0  0  0  0  0
   -7.6006   -4.6157  -23.6085 C   0  0  0  0  0  0  0  0  0  0  0  0
   -5.7167   -1.3699  -20.0372 C   0  0  0  0  0  0  0  0  0  0  0  0
   -6.1662   -1.4867  -18.6110 C   0  0  0  0  0  0  0  0  0  0  0  0
   -5.6535   -0.5234  -17.5818 N   0  0  0  0  0  0  0  0  0  0  0  0
   -4.6913    0.5565  -17.9789 C   0  0  0  0  0  0  0  0  0  0  0  0
   -4.2417    0.6733  -19.4052 C   0  0  0  0  0  0  0  0  0  0  0  0
   -3.2794    1.7534  -19.8023 C   0  0  0  0  0  0  0  0  0  0  0  0
   -2.8300    1.8701  -21.2286 C   0  0  0  0  0  0  0  0  0  0  0  0
   -3.3427    0.9068  -22.2577 C   0  0  0  0  0  0  0  0  0  0  0  0
   -4.3050   -0.1731  -21.8606 C   0  0  0  0  0  0  0  0  0  0  0  0
   -4.7545   -0.2899  -20.4344 C   0  0  0  0  0  0  0  0  0  0  0  0
  -11.0754   -1.7672  -23.8575 C   0  0  0  0  0  0  0  0  0  0  0  0
  -10.8306   -0.3019  -24.0648 C   0  0  0  0  0  0  0  0  0  0  0  0
   -9.5673    0.3158  -24.5869 N   0  0  0  0  0  0  0  0  0  0  0  0
   -9.7621    1.8024  -24.6312 N   0  0  0  0  0  0  0  0  0  0  0  0
  -11.1458    2.1035  -24.1365 N   0  0  0  0  0  0  0  0  0  0  0  0
  -11.8062    0.8030  -23.7864 N   0  0  0  0  0  0  0  0  0  0  0  0
  -13.1978    0.6366  -23.2519 C   0  0  0  0  0  0  0  0  0  0  0  0
  2  1  1  0  0  0
  2  3  1  0  0  0
  3  4  1  0  0  0
  4 19  1  0  0  0
 19 20  2  0  0  0
 20 21  1  0  0  0
 21 22  2  0  0  0
 22 23  1  0  0  0
 23 24  2  0  0  0
 24 25  1  0  0  0
 25 26  2  0  0  0
 26 27  1  0  0  0
 27 28  2  0  0  0
  4  5  1  0  0  0
  5  6  2  0  0  0
  5  7  1  0  0  0
  7  8  1  0  0  0
  8  9  1  0  0  0
  9 29  1  0  0  0
 29 30  1  0  0  0
 30 31  2  0  0  0
 31 32  1  0  0  0
 32 33  2  0  0  0
 33 34  1  0  0  0
 34 35  1  0  0  0
  9 10  1  0  0  0
 10 11  2  0  0  0
 10 12  1  0  0  0
 12 13  2  0  0  0
 13 14  1  0  0  0
 14 15  2  0  0  0
 15 16  1  0  0  0
 15 17  1  0  0  0
 17 18  2  0  0  0
  7  2  1  0  0  0
 34 30  1  0  0  0
 18 12  1  0  0  0
 28 19  1  0  0  0
 18  7  1  0  0  0
 28 23  1  0  0  0
M  END
> <minimizedAffinity>
-8.91698

> <CNNscore>
0.3269925416

> <CNNaffinity>
6.3201322556

> <CNN_VS>
2.0666360855

> <CNNaffinity_variance>
0.2516774833

$$$$



 35 40  0  0  0  0  0  0  0  0999 V2000
  -10.1608   -1.3193  -23.1321 C   0  0  0  0  0  0  0  0  0  0  0  0
   -9.4857   -0.0027  -23.3785 C   0  0  0  0  0  0  0  0  0  0  0  0
   -7.9911   -0.1306  -23.3878 C   0  0  0  0  0  0  0  0  0  0  0  0
   -7.4111    1.2296  -23.6398 N   0  0  0  0  0  0  0  0  0  0  0  0
   -8.5471    2.1980  -23.7864 C   0  0  0  0  0  0  0  0  0  0  0  0
   -8.4228    3.6697  -24.0484 O   0  0  0  0  0  0  0  0  0  0  0  0
   -9.8293    1.4365  -23.6248 C   0  0  0  0  0  0  0  0  0  0  0  0
  -10.0184    2.9026  -23.8792 C   0  0  0  0  0  0  0  0  0  0  0  0
  -11.4014    3.4790  -23.9514 N   0  0  0  0  0  0  0  0  0  0  0  0
  -12.5952    2.5893  -23.7692 C   0  0  0  0  0  0  0  0  0  0  0  0
  -13.9781    3.1657  -23.8414 O   0  0  0  0  0  0  0  0  0  0  0  0
  -12.4061    1.1232  -23.5148 C   0  0  0  0  0  0  0  0  0  0  0  0
  -13.5999    0.2335  -23.3326 C   0  0  0  0  0  0  0  0  0  0  0  0
  -13.4107   -1.2326  -23.0782 C   0  0  0  0  0  0  0  0  0  0  0  0
  -12.0278   -1.8090  -23.0060 C   0  0  0  0  0  0  0  0  0  0  0  0
  -11.8387   -3.2752  -22.7516 F   0  0  0  0  0  0  0  0  0  0  0  0
  -10.8340   -0.9194  -23.1882 C   0  0  0  0  0  0  0  0  0  0  0  0
  -11.0231    0.5467  -23.4426 C   0  0  0  0  0  0  0  0  0  0  0  0
   -5.9513    1.5627  -23.7296 C   0  0  0  0  0  0  0  0  0  0  0  0
   -5.3633    2.0110  -25.0346 C   0  0  0  0  0  0  0  0  0  0  0  0
   -3.9035    2.3442  -25.1244 N   0  0  0  0  0  0  0  0  0  0  0  0
   -3.0318    2.2290  -23.9091 C   0  0  0  0  0  0  0  0  0  0  0  0
   -3.6199    1.7807  -22.6041 C   0  0  0  0  0  0  0  0  0  0  0  0
   -2.7482    1.6656  -21.3887 C   0  0  0  0  0  0  0  0  0  0  0  0
   -3.3364    1.2172  -20.0837 C   0  0  0  0  0  0  0  0  0  0  0  0
   -4.7961    0.8841  -19.9940 C   0  0  0  0  0  0  0  0  0  0  0  0
   -5.6678    0.9993  -21.2093 C   0  0  0  0  0  0  0  0  0  0  0  0
   -5.0797    1.4475  -22.5143 C   0  0  0  0  0  0  0  0  0  0  0  0
  -11.5905    4.9452  -24.2058 C   0  0  0  0  0  0  0  0  0  0  0  0
  -12.1379    5.4136  -25.5214 C   0  0  0  0  0  0  0  0  0  0  0  0
  -13.5085    5.9762  -25.7560 N   0  0  0  0  0  0  0  0  0  0  0  0
  -13.6285    6.3120  -27.2130 N   0  0  0  0  0  0  0  0  0  0  0  0
  -12.3321    5.9570  -27.8788 N   0  0  0  0  0  0  0  0  0  0  0  0
  -11.4109    5.4017  -26.8334 N   0  0  0  0  0  0  0  0  0  0  0  0
  -10.0088    4.9193  -27.0601 C   0  0  0  0  0  0  0  0  0  0  0  0
  2  1  1  0  0  0
  2  3  1  0  0  0
  3  4  1  0  0  0
  4 19  1  0  0  0
 19 20  2  0  0  0
 20 21  1  0  0  0
 21 22  2  0  0  0
 22 23  1  0  0  0
 23 24  2  0  0  0
 24 25  1  0  0  0
 25 26  2  0  0  0
 26 27  1  0  0  0
 27 28  2  0  0  0
  4  5  1  0  0  0
  5  6  2  0  0  0
  5  7  1  0  0  0
  7  8  1  0  0  0
  8  9  1  0  0  0
  9 29  1  0  0  0
 29 30  1  0  0  0
 30 31  2  0  0  0
 31 32  1  0  0  0
 32 33  2  0  0  0
 33 34  1  0  0  0
 34 35  1  0  0  0
  9 10  1  0  0  0
 10 11  2  0  0  0
 10 12  1  0  0  0
 12 13  2  0  0  0
 13 14  1  0  0  0
 14 15  2  0  0  0
 15 16  1  0  0  0
 15 17  1  0  0  0
 17 18  2  0  0  0
  7  2  1  0  0  0
 34 30  1  0  0  0
 18 12  1  0  0  0
 28 19  1  0  0  0
 18  7  1  0  0  0
 28 23  1  0  0  0
M  END
> <minimizedAffinity>
-7.77553

> <CNNscore>
0.2326631993

> <CNNaffinity>
6.0852179527

> <CNN_VS>
1.4158062935

> <CNNaffinity_variance>
0.1111023203

$$$$
