


 37 42  0  0  0  0  0  0  0  0999 V2000
   -8.5301   -0.3985  -22.1949 C   0  0  0  0  0  0  0  0  0  0  0  0
   -9.2705    0.9059  -22.2168 C   0  0  0  0  0  0  0  0  0  0  0  0
  -10.4801    0.7377  -23.0878 N   0  0  0  0  0  0  0  0  0  0  0  0
  -10.4873   -0.6706  -23.6041 C   0  0  0  0  0  0  0  0  0  0  0  0
  -11.5187   -1.2713  -24.5127 O   0  0  0  0  0  0  0  0  0  0  0  0
   -9.2822   -1.3729  -23.0523 C   0  0  0  0  0  0  0  0  0  0  0  0
  -10.1370   -2.2316  -23.9365 C   0  0  0  0  0  0  0  0  0  0  0  0
   -9.7516   -3.6577  -24.1964 N   0  0  0  0  0  0  0  0  0  0  0  0
   -8.5113   -4.2252  -23.5721 C   0  0  0  0  0  0  0  0  0  0  0  0
   -8.1259   -5.6513  -23.8320 O   0  0  0  0  0  0  0  0  0  0  0  0
   -7.6564   -3.3664  -22.6879 C   0  0  0  0  0  0  0  0  0  0  0  0
   -6.4162   -3.9339  -22.0636 C   0  0  0  0  0  0  0  0  0  0  0  0
   -5.5614   -3.0752  -21.1794 C   0  0  0  0  0  0  0  0  0  0  0  0
   -5.9468   -1.6490  -20.9195 C   0  0  0  0  0  0  0  0  0  0  0  0
   -5.0919   -0.7903  -20.0353 Cl  0  0  0  0  0  0  0  0  0  0  0  0
   -7.1870   -1.0816  -21.5438 C   0  0  0  0  0  0  0  0  0  0  0  0
   -8.0418   -1.9403  -22.4280 C   0  0  0  0  0  0  0  0  0  0  0  0
  -11.5029    1.7926  -23.3894 C   0  0  0  0  0  0  0  0  0  0  0  0
  -12.8721    1.7048  -22.7833 C   0  0  0  0  0  0  0  0  0  0  0  0
  -13.8949    2.7597  -23.0849 N   0  0  0  0  0  0  0  0  0  0  0  0
  -13.5485    3.9024  -23.9927 C   0  0  0  0  0  0  0  0  0  0  0  0
  -12.1792    3.9902  -24.5989 C   0  0  0  0  0  0  0  0  0  0  0  0
  -11.8328    5.1330  -25.5068 C   0  0  0  0  0  0  0  0  0  0  0  0
  -10.4635    5.2207  -26.1129 C   0  0  0  0  0  0  0  0  0  0  0  0
   -9.4408    4.1658  -25.8112 C   0  0  0  0  0  0  0  0  0  0  0  0
   -9.7872    3.0231  -24.9034 C   0  0  0  0  0  0  0  0  0  0  0  0
  -11.1564    2.9353  -24.2973 C   0  0  0  0  0  0  0  0  0  0  0  0
   -7.2606   -0.6793  -21.4469 C   0  0  0  0  0  0  0  0  0  0  0  0
   -5.8456   -0.5077  -19.2748 C   0  0  0  0  0  0  0  0  0  0  0  0
   -7.0880   -0.1730  -20.0455 O   0  0  0  0  0  0  0  0  0  0  0  0
  -10.6065   -4.5165  -25.0806 C   0  0  0  0  0  0  0  0  0  0  0  0
  -10.0121   -5.1704  -26.2926 C   0  0  0  0  0  0  0  0  0  0  0  0
   -9.2696   -4.4748  -27.3949 C   0  0  0  0  0  0  0  0  0  0  0  0
   -8.8544   -5.5092  -28.3987 N   0  0  0  0  0  0  0  0  0  0  0  0
   -9.3402   -6.8441  -27.9168 N   0  0  0  0  0  0  0  0  0  0  0  0
  -10.0557   -6.6346  -26.6152 C   0  0  0  0  0  0  0  0  0  0  0  0
   -9.2120   -7.7063  -28.3745 H   0  0  0  0  0  0  0  0  0  0  0  0
 29 30  1  0  0  0
 30 28  1  0  0  0
  1 28  1  0  0  0
  1  2  1  0  0  0
  2  3  1  0  0  0
  3 18  1  0  0  0
 18 19  2  0  0  0
 19 20  1  0  0  0
 20 21  2  0  0  0
 21 22  1  0  0  0
 22 23  2  0  0  0
 23 24  1  0  0  0
 24 25  2  0  0  0
 25 26  1  0  0  0
 26 27  2  0  0  0
  3  4  1  0  0  0
  4  5  2  0  0  0
  4  6  1  0  0  0
  6  7  1  0  0  0
  7  8  1  0  0  0
  8 31  1  0  0  0
 31 32  1  0  0  0
 32 33  1  0  0  0
 33 34  2  0  0  0
 34 35  1  0  0  0
 35 36  1  0  0  0
  8  9  1  0  0  0
  9 10  2  0  0  0
  9 11  1  0  0  0
 11 12  2  0  0  0
 12 13  1  0  0  0
 13 14  2  0  0  0
 14 15  1  0  0  0
 14 16  1  0  0  0
 16 17  2  0  0  0
  6  1  1  0  0  0
 36 32  2  0  0  0
 17 11  1  0  0  0
 27 18  1  0  0  0
 17  6  1  0  0  0
 27 22  1  0  0  0
 35 37  1  0  0  0
M  END
> <minimizedAffinity>
-9.39915

> <CNNscore>
0.7773283124

> <CNNaffinity>
6.6593894958

> <CNN_VS>
5.1765317917

> <CNNaffinity_variance>
0.3530955017

$$$$



 37 42  0  0  0  0  0  0  0  0999 V2000
   -6.3957   -4.0034  -22.6158 C   0  0  0  0  0  0  0  0  0  0  0  0
   -5.5574   -3.4062  -21.5247 C   0  0  0  0  0  0  0  0  0  0  0  0
   -6.1804   -2.1024  -21.1224 N   0  0  0  0  0  0  0  0  0  0  0  0
   -7.4037   -1.8938  -21.9649 C   0  0  0  0  0  0  0  0  0  0  0  0
   -8.3312   -0.7168  -21.8964 O   0  0  0  0  0  0  0  0  0  0  0  0
   -7.5368   -3.0686  -22.8879 C   0  0  0  0  0  0  0  0  0  0  0  0
   -8.6183   -2.0416  -23.0478 C   0  0  0  0  0  0  0  0  0  0  0  0
   -9.7022   -2.2459  -24.0644 N   0  0  0  0  0  0  0  0  0  0  0  0
   -9.7047   -3.4772  -24.9210 C   0  0  0  0  0  0  0  0  0  0  0  0
  -10.7886   -3.6814  -25.9376 O   0  0  0  0  0  0  0  0  0  0  0  0
   -8.6232   -4.5043  -24.7612 C   0  0  0  0  0  0  0  0  0  0  0  0
   -8.6256   -5.7355  -25.6178 C   0  0  0  0  0  0  0  0  0  0  0  0
   -7.5441   -6.7625  -25.4579 C   0  0  0  0  0  0  0  0  0  0  0  0
   -6.4602   -6.5583  -24.4414 C   0  0  0  0  0  0  0  0  0  0  0  0
   -5.3787   -7.5854  -24.2815 Cl  0  0  0  0  0  0  0  0  0  0  0  0
   -6.4578   -5.3270  -23.5847 C   0  0  0  0  0  0  0  0  0  0  0  0
   -7.5392   -4.3000  -23.7446 C   0  0  0  0  0  0  0  0  0  0  0  0
   -5.6697   -1.1707  -20.0635 C   0  0  0  0  0  0  0  0  0  0  0  0
   -6.1998   -1.2639  -18.6635 C   0  0  0  0  0  0  0  0  0  0  0  0
   -5.6891   -0.3322  -17.6046 N   0  0  0  0  0  0  0  0  0  0  0  0
   -4.6483    0.6925  -17.9459 C   0  0  0  0  0  0  0  0  0  0  0  0
   -4.1181    0.7857  -19.3460 C   0  0  0  0  0  0  0  0  0  0  0  0
   -3.0772    1.8105  -19.6872 C   0  0  0  0  0  0  0  0  0  0  0  0
   -2.5471    1.9036  -21.0873 C   0  0  0  0  0  0  0  0  0  0  0  0
   -3.0578    0.9719  -22.1461 C   0  0  0  0  0  0  0  0  0  0  0  0
   -4.0987   -0.0529  -21.8049 C   0  0  0  0  0  0  0  0  0  0  0  0
   -4.6288   -0.1460  -20.4049 C   0  0  0  0  0  0  0  0  0  0  0  0
   -6.1381   -5.3066  -23.3125 C   0  0  0  0  0  0  0  0  0  0  0  0
   -5.7215   -6.7391  -21.1856 C   0  0  0  0  0  0  0  0  0  0  0  0
   -5.3891   -6.3986  -22.6080 O   0  0  0  0  0  0  0  0  0  0  0  0
  -10.7837   -1.2188  -24.2242 C   0  0  0  0  0  0  0  0  0  0  0  0
  -12.1023   -1.4043  -23.5336 C   0  0  0  0  0  0  0  0  0  0  0  0
  -13.3064   -0.5221  -23.6807 C   0  0  0  0  0  0  0  0  0  0  0  0
  -14.3965   -1.0772  -22.8126 N   0  0  0  0  0  0  0  0  0  0  0  0
  -13.8660   -2.3024  -22.1289 N   0  0  0  0  0  0  0  0  0  0  0  0
  -12.4481   -2.5046  -22.5745 C   0  0  0  0  0  0  0  0  0  0  0  0
  -14.3615   -2.8736  -21.4984 H   0  0  0  0  0  0  0  0  0  0  0  0
 29 30  1  0  0  0
 30 28  1  0  0  0
  1 28  1  0  0  0
  1  2  1  0  0  0
  2  3  1  0  0  0
  3 18  1  0  0  0
 18 19  2  0  0  0
 19 20  1  0  0  0
 20 21  2  0  0  0
 21 22  1  0  0  0
 22 23  2  0  0  0
 23 24  1  0  0  0
 24 25  2  0  0  0
 25 26  1  0  0  0
 26 27  2  0  0  0
  3  4  1  0  0  0
  4  5  2  0  0  0
  4  6  1  0  0  0
  6  7  1  0  0  0
  7  8  1  0  0  0
  8 31  1  0  0  0
 31 32  1  0  0  0
 32 33  1  0  0  0
 33 34  2  0  0  0
 34 35  1  0  0  0
 35 36  1  0  0  0
  8  9  1  0  0  0
  9 10  2  0  0  0
  9 11  1  0  0  0
 11 12  2  0  0  0
 12 13  1  0  0  0
 13 14  2  0  0  0
 14 15  1  0  0  0
 14 16  1  0  0  0
 16 17  2  0  0  0
  6  1  1  0  0  0
 36 32  2  0  0  0
 17 11  1  0  0  0
 27 18  1  0  0  0
 17  6  1  0  0  0
 27 22  1  0  0  0
 35 37  1  0  0  0
M  END
> <minimizedAffinity>
-8.71502

> <CNNscore>
0.6133326292

> <CNNaffinity>
6.6867332458

> <CNN_VS>
4.1011915207

> <CNNaffinity_variance>
0.1462840140

$$$$



 37 42  0  0  0  0  0  0  0  0999 V2000
   -6.7591    0.8937  -25.5229 C   0  0  0  0  0  0  0  0  0  0  0  0
   -8.2513    0.9230  -25.6731 C   0  0  0  0  0  0  0  0  0  0  0  0
   -8.8516    1.0772  -24.3072 N   0  0  0  0  0  0  0  0  0  0  0  0
   -7.7305    1.1431  -23.3128 C   0  0  0  0  0  0  0  0  0  0  0  0
   -7.8769    1.2957  -21.8278 O   0  0  0  0  0  0  0  0  0  0  0  0
   -6.4372    1.0297  -24.0642 C   0  0  0  0  0  0  0  0  0  0  0  0
   -6.2701    1.1728  -22.5805 C   0  0  0  0  0  0  0  0  0  0  0  0
   -4.8962    1.1921  -21.9788 N   0  0  0  0  0  0  0  0  0  0  0  0
   -3.6894    1.0682  -22.8609 C   0  0  0  0  0  0  0  0  0  0  0  0
   -2.3155    1.0874  -22.2592 O   0  0  0  0  0  0  0  0  0  0  0  0
   -3.8564    0.9250  -24.3447 C   0  0  0  0  0  0  0  0  0  0  0  0
   -2.6495    0.8011  -25.2268 C   0  0  0  0  0  0  0  0  0  0  0  0
   -2.8166    0.6580  -26.7105 C   0  0  0  0  0  0  0  0  0  0  0  0
   -4.1905    0.6388  -27.3122 C   0  0  0  0  0  0  0  0  0  0  0  0
   -4.3575    0.4956  -28.7961 Cl  0  0  0  0  0  0  0  0  0  0  0  0
   -5.3973    0.7627  -26.4301 C   0  0  0  0  0  0  0  0  0  0  0  0
   -5.2303    0.9058  -24.9464 C   0  0  0  0  0  0  0  0  0  0  0  0
  -10.3160    1.1523  -23.9910 C   0  0  0  0  0  0  0  0  0  0  0  0
  -11.0409    2.4608  -24.1010 C   0  0  0  0  0  0  0  0  0  0  0  0
  -12.5053    2.5359  -23.7849 N   0  0  0  0  0  0  0  0  0  0  0  0
  -13.2447    1.3023  -23.3587 C   0  0  0  0  0  0  0  0  0  0  0  0
  -12.5197   -0.0062  -23.2487 C   0  0  0  0  0  0  0  0  0  0  0  0
  -13.2592   -1.2398  -22.8225 C   0  0  0  0  0  0  0  0  0  0  0  0
  -12.5342   -2.5483  -22.7125 C   0  0  0  0  0  0  0  0  0  0  0  0
  -11.0699   -2.6233  -23.0286 C   0  0  0  0  0  0  0  0  0  0  0  0
  -10.3305   -1.3898  -23.4548 C   0  0  0  0  0  0  0  0  0  0  0  0
  -11.0554   -0.0813  -23.5648 C   0  0  0  0  0  0  0  0  0  0  0  0
   -5.7636    0.7530  -26.6361 C   0  0  0  0  0  0  0  0  0  0  0  0
   -7.1366   -0.9625  -28.0224 C   0  0  0  0  0  0  0  0  0  0  0  0
   -5.8147   -0.4417  -27.5417 O   0  0  0  0  0  0  0  0  0  0  0  0
   -4.7292    1.3352  -20.4950 C   0  0  0  0  0  0  0  0  0  0  0  0
   -5.0207    0.1736  -19.5919 C   0  0  0  0  0  0  0  0  0  0  0  0
   -5.2044    0.2375  -18.1046 C   0  0  0  0  0  0  0  0  0  0  0  0
   -5.4769   -1.1525  -17.6110 N   0  0  0  0  0  0  0  0  0  0  0  0
   -5.4617   -2.0756  -18.7934 N   0  0  0  0  0  0  0  0  0  0  0  0
   -5.1798   -1.2560  -20.0176 C   0  0  0  0  0  0  0  0  0  0  0  0
   -5.6106   -3.0485  -18.7700 H   0  0  0  0  0  0  0  0  0  0  0  0
 29 30  1  0  0  0
 30 28  1  0  0  0
  1 28  1  0  0  0
  1  2  1  0  0  0
  2  3  1  0  0  0
  3 18  1  0  0  0
 18 19  2  0  0  0
 19 20  1  0  0  0
 20 21  2  0  0  0
 21 22  1  0  0  0
 22 23  2  0  0  0
 23 24  1  0  0  0
 24 25  2  0  0  0
 25 26  1  0  0  0
 26 27  2  0  0  0
  3  4  1  0  0  0
  4  5  2  0  0  0
  4  6  1  0  0  0
  6  7  1  0  0  0
  7  8  1  0  0  0
  8 31  1  0  0  0
 31 32  1  0  0  0
 32 33  1  0  0  0
 33 34  2  0  0  0
 34 35  1  0  0  0
 35 36  1  0  0  0
  8  9  1  0  0  0
  9 10  2  0  0  0
  9 11  1  0  0  0
 11 12  2  0  0  0
 12 13  1  0  0  0
 13 14  2  0  0  0
 14 15  1  0  0  0
 14 16  1  0  0  0
 16 17  2  0  0  0
  6  1  1  0  0  0
 36 32  2  0  0  0
 17 11  1  0  0  0
 27 18  1  0  0  0
 17  6  1  0  0  0
 27 22  1  0  0  0
 35 37  1  0  0  0
M  END
> <minimizedAffinity>
-7.51384

> <CNNscore>
0.4598424137

> <CNNaffinity>
6.3112463951

> <CNN_VS>
2.9021787643

> <CNNaffinity_variance>
0.0740637928

$$$$



 37 42  0  0  0  0  0  0  0  0999 V2000
   -7.8421    1.4258  -23.8707 C   0  0  0  0  0  0  0  0  0  0  0  0
   -8.8009    2.5727  -23.7467 C   0  0  0  0  0  0  0  0  0  0  0  0
  -10.1933    2.0279  -23.8671 N   0  0  0  0  0  0  0  0  0  0  0  0
  -10.0949    0.5443  -24.0656 C   0  0  0  0  0  0  0  0  0  0  0  0
  -11.2474   -0.4012  -24.2325 O   0  0  0  0  0  0  0  0  0  0  0  0
   -8.6418    0.1722  -24.0678 C   0  0  0  0  0  0  0  0  0  0  0  0
   -9.5697   -0.9911  -24.2569 C   0  0  0  0  0  0  0  0  0  0  0  0
   -9.0139   -2.3739  -24.4265 N   0  0  0  0  0  0  0  0  0  0  0  0
   -7.5302   -2.5935  -24.4069 C   0  0  0  0  0  0  0  0  0  0  0  0
   -6.9744   -3.9764  -24.5765 O   0  0  0  0  0  0  0  0  0  0  0  0
   -6.6022   -1.4302  -24.2179 C   0  0  0  0  0  0  0  0  0  0  0  0
   -5.1186   -1.6498  -24.1984 C   0  0  0  0  0  0  0  0  0  0  0  0
   -4.1907   -0.4865  -24.0093 C   0  0  0  0  0  0  0  0  0  0  0  0
   -4.7465    0.8963  -23.8397 C   0  0  0  0  0  0  0  0  0  0  0  0
   -3.8185    2.0596  -23.6507 Cl  0  0  0  0  0  0  0  0  0  0  0  0
   -6.2302    1.1159  -23.8592 C   0  0  0  0  0  0  0  0  0  0  0  0
   -7.1580   -0.0473  -24.0483 C   0  0  0  0  0  0  0  0  0  0  0  0
  -11.4613    2.8263  -23.8007 C   0  0  0  0  0  0  0  0  0  0  0  0
  -12.4133    2.6285  -22.6586 C   0  0  0  0  0  0  0  0  0  0  0  0
  -13.6814    3.4270  -22.5922 N   0  0  0  0  0  0  0  0  0  0  0  0
  -13.9974    4.4233  -23.6680 C   0  0  0  0  0  0  0  0  0  0  0  0
  -13.0454    4.6212  -24.8102 C   0  0  0  0  0  0  0  0  0  0  0  0
  -13.3615    5.6176  -25.8860 C   0  0  0  0  0  0  0  0  0  0  0  0
  -12.4094    5.8154  -27.0282 C   0  0  0  0  0  0  0  0  0  0  0  0
  -11.1415    5.0169  -27.0945 C   0  0  0  0  0  0  0  0  0  0  0  0
  -10.8254    4.0206  -26.0187 C   0  0  0  0  0  0  0  0  0  0  0  0
  -11.7773    3.8227  -24.8766 C   0  0  0  0  0  0  0  0  0  0  0  0
   -6.3461    1.5167  -23.8086 C   0  0  0  0  0  0  0  0  0  0  0  0
   -6.4049    3.5331  -22.1714 C   0  0  0  0  0  0  0  0  0  0  0  0
   -5.6885    2.3477  -22.7470 O   0  0  0  0  0  0  0  0  0  0  0  0
   -9.9419   -3.5372  -24.6155 C   0  0  0  0  0  0  0  0  0  0  0  0
   -9.9124   -4.3199  -25.8948 C   0  0  0  0  0  0  0  0  0  0  0  0
   -9.3069   -3.8685  -27.1908 C   0  0  0  0  0  0  0  0  0  0  0  0
   -9.5036   -4.9610  -28.1996 N   0  0  0  0  0  0  0  0  0  0  0  0
  -10.2307   -6.0876  -27.5271 N   0  0  0  0  0  0  0  0  0  0  0  0
  -10.4833   -5.6913  -26.1027 C   0  0  0  0  0  0  0  0  0  0  0  0
  -10.4955   -6.9378  -27.9470 H   0  0  0  0  0  0  0  0  0  0  0  0
 29 30  1  0  0  0
 30 28  1  0  0  0
  1 28  1  0  0  0
  1  2  1  0  0  0
  2  3  1  0  0  0
  3 18  1  0  0  0
 18 19  2  0  0  0
 19 20  1  0  0  0
 20 21  2  0  0  0
 21 22  1  0  0  0
 22 23  2  0  0  0
 23 24  1  0  0  0
 24 25  2  0  0  0
 25 26  1  0  0  0
 26 27  2  0  0  0
  3  4  1  0  0  0
  4  5  2  0  0  0
  4  6  1  0  0  0
  6  7  1  0  0  0
  7  8  1  0  0  0
  8 31  1  0  0  0
 31 32  1  0  0  0
 32 33  1  0  0  0
 33 34  2  0  0  0
 34 35  1  0  0  0
 35 36  1  0  0  0
  8  9  1  0  0  0
  9 10  2  0  0  0
  9 11  1  0  0  0
 11 12  2  0  0  0
 12 13  1  0  0  0
 13 14  2  0  0  0
 14 15  1  0  0  0
 14 16  1  0  0  0
 16 17  2  0  0  0
  6  1  1  0  0  0
 36 32  2  0  0  0
 17 11  1  0  0  0
 27 18  1  0  0  0
 17  6  1  0  0  0
 27 22  1  0  0  0
 35 37  1  0  0  0
M  END
> <minimizedAffinity>
-7.16148

> <CNNscore>
0.4435350001

> <CNNaffinity>
6.1855974197

> <CNN_VS>
2.7435288429

> <CNNaffinity_variance>
0.1706657708

$$$$



 37 42  0  0  0  0  0  0  0  0999 V2000
   -8.3331   -2.6329  -22.7672 C   0  0  0  0  0  0  0  0  0  0  0  0
   -8.0281   -1.5197  -21.8092 C   0  0  0  0  0  0  0  0  0  0  0  0
   -6.7458   -1.8522  -21.1054 N   0  0  0  0  0  0  0  0  0  0  0  0
   -6.2584   -3.1709  -21.6284 C   0  0  0  0  0  0  0  0  0  0  0  0
   -5.0093   -3.8821  -21.1997 O   0  0  0  0  0  0  0  0  0  0  0  0
   -7.2394   -3.6534  -22.6555 C   0  0  0  0  0  0  0  0  0  0  0  0
   -6.0811   -4.5805  -22.4353 C   0  0  0  0  0  0  0  0  0  0  0  0
   -5.9852   -5.8590  -23.2139 N   0  0  0  0  0  0  0  0  0  0  0  0
   -7.0477   -6.2104  -24.2127 C   0  0  0  0  0  0  0  0  0  0  0  0
   -6.9518   -7.4889  -24.9914 O   0  0  0  0  0  0  0  0  0  0  0  0
   -8.2061   -5.2832  -24.4330 C   0  0  0  0  0  0  0  0  0  0  0  0
   -9.2686   -5.6345  -25.4318 C   0  0  0  0  0  0  0  0  0  0  0  0
  -10.4269   -4.7074  -25.6519 C   0  0  0  0  0  0  0  0  0  0  0  0
  -10.5228   -3.4289  -24.8733 C   0  0  0  0  0  0  0  0  0  0  0  0
  -11.6813   -2.5017  -25.0935 Cl  0  0  0  0  0  0  0  0  0  0  0  0
   -9.4603   -3.0775  -23.8745 C   0  0  0  0  0  0  0  0  0  0  0  0
   -8.3020   -4.0047  -23.6543 C   0  0  0  0  0  0  0  0  0  0  0  0
   -6.0697   -1.0133  -20.0618 C   0  0  0  0  0  0  0  0  0  0  0  0
   -6.5662   -1.0327  -18.6466 C   0  0  0  0  0  0  0  0  0  0  0  0
   -5.8901   -0.1938  -17.6030 N   0  0  0  0  0  0  0  0  0  0  0  0
   -4.7174    0.6644  -17.9747 C   0  0  0  0  0  0  0  0  0  0  0  0
   -4.2209    0.6838  -19.3900 C   0  0  0  0  0  0  0  0  0  0  0  0
   -3.0481    1.5422  -19.7617 C   0  0  0  0  0  0  0  0  0  0  0  0
   -2.5517    1.5615  -21.1770 C   0  0  0  0  0  0  0  0  0  0  0  0
   -3.2278    0.7226  -22.2205 C   0  0  0  0  0  0  0  0  0  0  0  0
   -4.4005   -0.1357  -21.8488 C   0  0  0  0  0  0  0  0  0  0  0  0
   -4.8970   -0.1550  -20.4336 C   0  0  0  0  0  0  0  0  0  0  0  0
   -9.5230   -2.7118  -23.6771 C   0  0  0  0  0  0  0  0  0  0  0  0
   -9.8217   -0.1444  -23.9399 C   0  0  0  0  0  0  0  0  0  0  0  0
   -9.9074   -1.5275  -24.5137 O   0  0  0  0  0  0  0  0  0  0  0  0
   -4.8267   -6.7862  -22.9937 C   0  0  0  0  0  0  0  0  0  0  0  0
   -3.5990   -6.6684  -23.8473 C   0  0  0  0  0  0  0  0  0  0  0  0
   -2.1864   -6.8945  -23.3961 C   0  0  0  0  0  0  0  0  0  0  0  0
   -1.2826   -6.6696  -24.5719 N   0  0  0  0  0  0  0  0  0  0  0  0
   -2.1366   -6.3045  -25.7498 N   0  0  0  0  0  0  0  0  0  0  0  0
   -3.5682   -6.3037  -25.3020 C   0  0  0  0  0  0  0  0  0  0  0  0
   -1.8141   -6.1010  -26.6575 H   0  0  0  0  0  0  0  0  0  0  0  0
 29 30  1  0  0  0
 30 28  1  0  0  0
  1 28  1  0  0  0
  1  2  1  0  0  0
  2  3  1  0  0  0
  3 18  1  0  0  0
 18 19  2  0  0  0
 19 20  1  0  0  0
 20 21  2  0  0  0
 21 22  1  0  0  0
 22 23  2  0  0  0
 23 24  1  0  0  0
 24 25  2  0  0  0
 25 26  1  0  0  0
 26 27  2  0  0  0
  3  4  1  0  0  0
  4  5  2  0  0  0
  4  6  1  0  0  0
  6  7  1  0  0  0
  7  8  1  0  0  0
  8 31  1  0  0  0
 31 32  1  0  0  0
 32 33  1  0  0  0
 33 34  2  0  0  0
 34 35  1  0  0  0
 35 36  1  0  0  0
  8  9  1  0  0  0
  9 10  2  0  0  0
  9 11  1  0  0  0
 11 12  2  0  0  0
 12 13  1  0  0  0
 13 14  2  0  0  0
 14 15  1  0  0  0
 14 16  1  0  0  0
 16 17  2  0  0  0
  6  1  1  0  0  0
 36 32  2  0  0  0
 17 11  1  0  0  0
 27 18  1  0  0  0
 17  6  1  0  0  0
 27 22  1  0  0  0
 35 37  1  0  0  0
M  END
> <minimizedAffinity>
-7.44432

> <CNNscore>
0.4254766703

> <CNNaffinity>
6.3085145950

> <CNN_VS>
2.6841259003

> <CNNaffinity_variance>
0.1035217643

$$$$



 37 42  0  0  0  0  0  0  0  0999 V2000
   -6.8222    0.9739  -25.5060 C   0  0  0  0  0  0  0  0  0  0  0  0
   -8.3152    1.0231  -25.6423 C   0  0  0  0  0  0  0  0  0  0  0  0
   -8.9013    1.1717  -24.2695 N   0  0  0  0  0  0  0  0  0  0  0  0
   -7.7705    1.2143  -23.2849 C   0  0  0  0  0  0  0  0  0  0  0  0
   -7.9018    1.3545  -21.7972 O   0  0  0  0  0  0  0  0  0  0  0  0
   -6.4856    1.0921  -24.0490 C   0  0  0  0  0  0  0  0  0  0  0  0
   -6.3035    1.2190  -22.5655 C   0  0  0  0  0  0  0  0  0  0  0  0
   -4.9241    1.2155  -21.9762 N   0  0  0  0  0  0  0  0  0  0  0  0
   -3.7268    1.0851  -22.8703 C   0  0  0  0  0  0  0  0  0  0  0  0
   -2.3474    1.0817  -22.2810 O   0  0  0  0  0  0  0  0  0  0  0  0
   -3.9089    0.9582  -24.3539 C   0  0  0  0  0  0  0  0  0  0  0  0
   -2.7116    0.8278  -25.2480 C   0  0  0  0  0  0  0  0  0  0  0  0
   -2.8937    0.7009  -26.7314 C   0  0  0  0  0  0  0  0  0  0  0  0
   -4.2731    0.7044  -27.3208 C   0  0  0  0  0  0  0  0  0  0  0  0
   -4.4551    0.5774  -28.8043 Cl  0  0  0  0  0  0  0  0  0  0  0  0
   -5.4704    0.8348  -26.4267 C   0  0  0  0  0  0  0  0  0  0  0  0
   -5.2883    0.9617  -24.9432 C   0  0  0  0  0  0  0  0  0  0  0  0
  -10.3617    1.2618  -23.9394 C   0  0  0  0  0  0  0  0  0  0  0  0
  -11.1482    0.0133  -23.6702 C   0  0  0  0  0  0  0  0  0  0  0  0
  -12.6087    0.1035  -23.3401 N   0  0  0  0  0  0  0  0  0  0  0  0
  -13.2826    1.4422  -23.2792 C   0  0  0  0  0  0  0  0  0  0  0  0
  -12.4960    2.6907  -23.5485 C   0  0  0  0  0  0  0  0  0  0  0  0
  -13.1700    4.0295  -23.4876 C   0  0  0  0  0  0  0  0  0  0  0  0
  -12.3834    5.2780  -23.7568 C   0  0  0  0  0  0  0  0  0  0  0  0
  -10.9230    5.1878  -24.0869 C   0  0  0  0  0  0  0  0  0  0  0  0
  -10.2491    3.8491  -24.1478 C   0  0  0  0  0  0  0  0  0  0  0  0
  -11.0356    2.6006  -23.8786 C   0  0  0  0  0  0  0  0  0  0  0  0
   -5.8385    0.8316  -26.6294 C   0  0  0  0  0  0  0  0  0  0  0  0
   -7.5899    0.7052  -28.5443 C   0  0  0  0  0  0  0  0  0  0  0  0
   -6.2527    1.1543  -28.0345 O   0  0  0  0  0  0  0  0  0  0  0  0
   -4.7420    1.3425  -20.4927 C   0  0  0  0  0  0  0  0  0  0  0  0
   -5.0348    0.1743  -19.5984 C   0  0  0  0  0  0  0  0  0  0  0  0
   -5.2097    0.2258  -18.1096 C   0  0  0  0  0  0  0  0  0  0  0  0
   -5.4871   -1.1671  -17.6270 N   0  0  0  0  0  0  0  0  0  0  0  0
   -5.4835   -2.0795  -18.8177 N   0  0  0  0  0  0  0  0  0  0  0  0
   -5.2040   -1.2504  -20.0361 C   0  0  0  0  0  0  0  0  0  0  0  0
   -5.6376   -3.0518  -18.8022 H   0  0  0  0  0  0  0  0  0  0  0  0
 29 30  1  0  0  0
 30 28  1  0  0  0
  1 28  1  0  0  0
  1  2  1  0  0  0
  2  3  1  0  0  0
  3 18  1  0  0  0
 18 19  2  0  0  0
 19 20  1  0  0  0
 20 21  2  0  0  0
 21 22  1  0  0  0
 22 23  2  0  0  0
 23 24  1  0  0  0
 24 25  2  0  0  0
 25 26  1  0  0  0
 26 27  2  0  0  0
  3  4  1  0  0  0
  4  5  2  0  0  0
  4  6  1  0  0  0
  6  7  1  0  0  0
  7  8  1  0  0  0
  8 31  1  0  0  0
 31 32  1  0  0  0
 32 33  1  0  0  0
 33 34  2  0  0  0
 34 35  1  0  0  0
 35 36  1  0  0  0
  8  9  1  0  0  0
  9 10  2  0  0  0
  9 11  1  0  0  0
 11 12  2  0  0  0
 12 13  1  0  0  0
 13 14  2  0  0  0
 14 15  1  0  0  0
 14 16  1  0  0  0
 16 17  2  0  0  0
  6  1  1  0  0  0
 36 32  2  0  0  0
 17 11  1  0  0  0
 27 18  1  0  0  0
 17  6  1  0  0  0
 27 22  1  0  0  0
 35 37  1  0  0  0
M  END
> <minimizedAffinity>
-7.47109

> <CNNscore>
0.3830870092

> <CNNaffinity>
5.9213056564

> <CNN_VS>
2.2683751583

> <CNNaffinity_variance>
0.2684734464

$$$$



 37 42  0  0  0  0  0  0  0  0999 V2000
   -7.1134   -1.7234  -25.5590 C   0  0  0  0  0  0  0  0  0  0  0  0
   -8.5790   -2.0325  -25.4781 C   0  0  0  0  0  0  0  0  0  0  0  0
   -9.0900   -1.5156  -24.1660 N   0  0  0  0  0  0  0  0  0  0  0  0
   -7.9402   -0.8872  -23.4359 C   0  0  0  0  0  0  0  0  0  0  0  0
   -8.0013   -0.2433  -22.0825 O   0  0  0  0  0  0  0  0  0  0  0  0
   -6.7186   -1.0156  -24.2968 C   0  0  0  0  0  0  0  0  0  0  0  0
   -6.4736   -0.3216  -22.9898 C   0  0  0  0  0  0  0  0  0  0  0  0
   -5.0986    0.1713  -22.6485 N   0  0  0  0  0  0  0  0  0  0  0  0
   -3.9686   -0.0299  -23.6142 C   0  0  0  0  0  0  0  0  0  0  0  0
   -2.5936    0.4630  -23.2729 O   0  0  0  0  0  0  0  0  0  0  0  0
   -4.2136   -0.7239  -24.9213 C   0  0  0  0  0  0  0  0  0  0  0  0
   -3.0836   -0.9251  -25.8870 C   0  0  0  0  0  0  0  0  0  0  0  0
   -3.3286   -1.6191  -27.1940 C   0  0  0  0  0  0  0  0  0  0  0  0
   -4.7036   -2.1119  -27.5353 C   0  0  0  0  0  0  0  0  0  0  0  0
   -4.9485   -2.8060  -28.8424 Cl  0  0  0  0  0  0  0  0  0  0  0  0
   -5.8336   -1.9108  -26.5696 C   0  0  0  0  0  0  0  0  0  0  0  0
   -5.5886   -1.2168  -25.2626 C   0  0  0  0  0  0  0  0  0  0  0  0
  -10.5027   -1.6106  -23.6708 C   0  0  0  0  0  0  0  0  0  0  0  0
  -11.0550   -2.9330  -23.2281 C   0  0  0  0  0  0  0  0  0  0  0  0
  -12.4677   -3.0279  -22.7329 N   0  0  0  0  0  0  0  0  0  0  0  0
  -13.3281   -1.8004  -22.6805 C   0  0  0  0  0  0  0  0  0  0  0  0
  -12.7758   -0.4779  -23.1232 C   0  0  0  0  0  0  0  0  0  0  0  0
  -13.6363    0.7497  -23.0707 C   0  0  0  0  0  0  0  0  0  0  0  0
  -13.0839    2.0722  -23.5134 C   0  0  0  0  0  0  0  0  0  0  0  0
  -11.6712    2.1670  -24.0086 C   0  0  0  0  0  0  0  0  0  0  0  0
  -10.8108    0.9395  -24.0610 C   0  0  0  0  0  0  0  0  0  0  0  0
  -11.3631   -0.3829  -23.6184 C   0  0  0  0  0  0  0  0  0  0  0  0
   -6.2026   -2.0627  -26.7015 C   0  0  0  0  0  0  0  0  0  0  0  0
   -7.5828   -0.9588  -28.6058 C   0  0  0  0  0  0  0  0  0  0  0  0
   -6.7357   -2.0900  -28.1033 O   0  0  0  0  0  0  0  0  0  0  0  0
   -4.8537    0.8653  -21.3415 C   0  0  0  0  0  0  0  0  0  0  0  0
   -5.0183    0.1165  -20.0523 C   0  0  0  0  0  0  0  0  0  0  0  0
   -5.6773   -1.2209  -19.8874 C   0  0  0  0  0  0  0  0  0  0  0  0
   -5.6192   -1.5904  -18.4348 N   0  0  0  0  0  0  0  0  0  0  0  0
   -4.9243   -0.4813  -17.7018 N   0  0  0  0  0  0  0  0  0  0  0  0
   -4.5529    0.5736  -18.7015 C   0  0  0  0  0  0  0  0  0  0  0  0
   -4.7436   -0.4511  -16.7345 H   0  0  0  0  0  0  0  0  0  0  0  0
 29 30  1  0  0  0
 30 28  1  0  0  0
  1 28  1  0  0  0
  1  2  1  0  0  0
  2  3  1  0  0  0
  3 18  1  0  0  0
 18 19  2  0  0  0
 19 20  1  0  0  0
 20 21  2  0  0  0
 21 22  1  0  0  0
 22 23  2  0  0  0
 23 24  1  0  0  0
 24 25  2  0  0  0
 25 26  1  0  0  0
 26 27  2  0  0  0
  3  4  1  0  0  0
  4  5  2  0  0  0
  4  6  1  0  0  0
  6  7  1  0  0  0
  7  8  1  0  0  0
  8 31  1  0  0  0
 31 32  1  0  0  0
 32 33  1  0  0  0
 33 34  2  0  0  0
 34 35  1  0  0  0
 35 36  1  0  0  0
  8  9  1  0  0  0
  9 10  2  0  0  0
  9 11  1  0  0  0
 11 12  2  0  0  0
 12 13  1  0  0  0
 13 14  2  0  0  0
 14 15  1  0  0  0
 14 16  1  0  0  0
 16 17  2  0  0  0
  6  1  1  0  0  0
 36 32  2  0  0  0
 17 11  1  0  0  0
 27 18  1  0  0  0
 17  6  1  0  0  0
 27 22  1  0  0  0
 35 37  1  0  0  0
M  END
> <minimizedAffinity>
-7.42149

> <CNNscore>
0.3771684468

> <CNNaffinity>
6.1442751884

> <CNN_VS>
2.3174266815

> <CNNaffinity_variance>
0.2034346312

$$$$



 37 42  0  0  0  0  0  0  0  0999 V2000
   -7.3151    2.7360  -24.2250 C   0  0  0  0  0  0  0  0  0  0  0  0
   -8.4755    1.8442  -24.5539 C   0  0  0  0  0  0  0  0  0  0  0  0
   -8.3509    0.5980  -23.7284 N   0  0  0  0  0  0  0  0  0  0  0  0
   -7.1135    0.7196  -22.8893 C   0  0  0  0  0  0  0  0  0  0  0  0
   -6.6055   -0.3010  -21.9145 O   0  0  0  0  0  0  0  0  0  0  0  0
   -6.4733    2.0410  -23.1962 C   0  0  0  0  0  0  0  0  0  0  0  0
   -5.7352    1.2281  -22.1743 C   0  0  0  0  0  0  0  0  0  0  0  0
   -4.4746    1.7609  -21.5603 N   0  0  0  0  0  0  0  0  0  0  0  0
   -3.9521    3.1065  -21.9681 C   0  0  0  0  0  0  0  0  0  0  0  0
   -2.6915    3.6392  -21.3541 O   0  0  0  0  0  0  0  0  0  0  0  0
   -4.6903    3.9194  -22.9901 C   0  0  0  0  0  0  0  0  0  0  0  0
   -4.1679    5.2650  -23.3980 C   0  0  0  0  0  0  0  0  0  0  0  0
   -4.9060    6.0778  -24.4199 C   0  0  0  0  0  0  0  0  0  0  0  0
   -6.1666    5.5450  -25.0340 C   0  0  0  0  0  0  0  0  0  0  0  0
   -6.9048    6.3579  -26.0559 Cl  0  0  0  0  0  0  0  0  0  0  0  0
   -6.6891    4.1994  -24.6261 C   0  0  0  0  0  0  0  0  0  0  0  0
   -5.9509    3.3866  -23.6042 C   0  0  0  0  0  0  0  0  0  0  0  0
   -9.2975   -0.5655  -23.7399 C   0  0  0  0  0  0  0  0  0  0  0  0
   -8.7720   -1.9581  -23.9251 C   0  0  0  0  0  0  0  0  0  0  0  0
   -9.7186   -3.1216  -23.9366 N   0  0  0  0  0  0  0  0  0  0  0  0
  -11.1908   -2.8925  -23.7630 C   0  0  0  0  0  0  0  0  0  0  0  0
  -11.7163   -1.4998  -23.5777 C   0  0  0  0  0  0  0  0  0  0  0  0
  -13.1886   -1.2707  -23.4041 C   0  0  0  0  0  0  0  0  0  0  0  0
  -13.7141    0.1220  -23.2189 C   0  0  0  0  0  0  0  0  0  0  0  0
  -12.7674    1.2855  -23.2073 C   0  0  0  0  0  0  0  0  0  0  0  0
  -11.2953    1.0563  -23.3810 C   0  0  0  0  0  0  0  0  0  0  0  0
  -10.7697   -0.3363  -23.5662 C   0  0  0  0  0  0  0  0  0  0  0  0
   -7.0440    4.0858  -24.8204 C   0  0  0  0  0  0  0  0  0  0  0  0
   -9.2886    5.0443  -23.9297 C   0  0  0  0  0  0  0  0  0  0  0  0
   -8.1395    5.1079  -24.8917 O   0  0  0  0  0  0  0  0  0  0  0  0
   -3.7364    0.9480  -20.5383 C   0  0  0  0  0  0  0  0  0  0  0  0
   -4.4926    0.0448  -19.6096 C   0  0  0  0  0  0  0  0  0  0  0  0
   -4.9567    0.3918  -18.2261 C   0  0  0  0  0  0  0  0  0  0  0  0
   -5.6684   -0.8024  -17.6628 N   0  0  0  0  0  0  0  0  0  0  0  0
   -5.6441   -1.8875  -18.6983 N   0  0  0  0  0  0  0  0  0  0  0  0
   -4.9174   -1.3639  -19.9014 C   0  0  0  0  0  0  0  0  0  0  0  0
   -6.0363   -2.7857  -18.6046 H   0  0  0  0  0  0  0  0  0  0  0  0
 29 30  1  0  0  0
 30 28  1  0  0  0
  1 28  1  0  0  0
  1  2  1  0  0  0
  2  3  1  0  0  0
  3 18  1  0  0  0
 18 19  2  0  0  0
 19 20  1  0  0  0
 20 21  2  0  0  0
 21 22  1  0  0  0
 22 23  2  0  0  0
 23 24  1  0  0  0
 24 25  2  0  0  0
 25 26  1  0  0  0
 26 27  2  0  0  0
  3  4  1  0  0  0
  4  5  2  0  0  0
  4  6  1  0  0  0
  6  7  1  0  0  0
  7  8  1  0  0  0
  8 31  1  0  0  0
 31 32  1  0  0  0
 32 33  1  0  0  0
 33 34  2  0  0  0
 34 35  1  0  0  0
 35 36  1  0  0  0
  8  9  1  0  0  0
  9 10  2  0  0  0
  9 11  1  0  0  0
 11 12  2  0  0  0
 12 13  1  0  0  0
 13 14  2  0  0  0
 14 15  1  0  0  0
 14 16  1  0  0  0
 16 17  2  0  0  0
  6  1  1  0  0  0
 36 32  2  0  0  0
 17 11  1  0  0  0
 27 18  1  0  0  0
 17  6  1  0  0  0
 27 22  1  0  0  0
 35 37  1  0  0  0
M  END
> <minimizedAffinity>
-7.25029

> <CNNscore>
0.3722871840

> <CNNaffinity>
6.0910439491

> <CNN_VS>
2.2676177025

> <CNNaffinity_variance>
0.1852098405

$$$$



 37 42  0  0  0  0  0  0  0  0999 V2000
   -6.4812    2.7516  -24.6189 C   0  0  0  0  0  0  0  0  0  0  0  0
   -7.8982    2.3854  -24.9478 C   0  0  0  0  0  0  0  0  0  0  0  0
   -8.4721    1.6517  -23.7721 N   0  0  0  0  0  0  0  0  0  0  0  0
   -7.4099    1.5645  -22.7166 C   0  0  0  0  0  0  0  0  0  0  0  0
   -7.5530    0.9120  -21.3735 O   0  0  0  0  0  0  0  0  0  0  0  0
   -6.1794    2.2443  -23.2399 C   0  0  0  0  0  0  0  0  0  0  0  0
   -6.0248    1.6823  -21.8578 C   0  0  0  0  0  0  0  0  0  0  0  0
   -4.7214    1.8290  -21.1300 N   0  0  0  0  0  0  0  0  0  0  0  0
   -3.5727    2.5377  -21.7843 C   0  0  0  0  0  0  0  0  0  0  0  0
   -2.2693    2.6844  -21.0565 O   0  0  0  0  0  0  0  0  0  0  0  0
   -3.7273    3.0998  -23.1664 C   0  0  0  0  0  0  0  0  0  0  0  0
   -2.5786    3.8085  -23.8207 C   0  0  0  0  0  0  0  0  0  0  0  0
   -2.7333    4.3706  -25.2028 C   0  0  0  0  0  0  0  0  0  0  0  0
   -4.0366    4.2239  -25.9306 C   0  0  0  0  0  0  0  0  0  0  0  0
   -4.1912    4.7859  -27.3127 Cl  0  0  0  0  0  0  0  0  0  0  0  0
   -5.1853    3.5151  -25.2763 C   0  0  0  0  0  0  0  0  0  0  0  0
   -5.0307    2.9531  -23.8942 C   0  0  0  0  0  0  0  0  0  0  0  0
   -9.8639    1.1017  -23.6698 C   0  0  0  0  0  0  0  0  0  0  0  0
  -10.0786   -0.3778  -23.5489 C   0  0  0  0  0  0  0  0  0  0  0  0
  -11.4704   -0.9278  -23.4466 N   0  0  0  0  0  0  0  0  0  0  0  0
  -12.6474    0.0019  -23.4652 C   0  0  0  0  0  0  0  0  0  0  0  0
  -12.4326    1.4815  -23.5861 C   0  0  0  0  0  0  0  0  0  0  0  0
  -13.6097    2.4112  -23.6046 C   0  0  0  0  0  0  0  0  0  0  0  0
  -13.3948    3.8908  -23.7255 C   0  0  0  0  0  0  0  0  0  0  0  0
  -12.0031    4.4407  -23.8278 C   0  0  0  0  0  0  0  0  0  0  0  0
  -10.8261    3.5110  -23.8092 C   0  0  0  0  0  0  0  0  0  0  0  0
  -11.0409    2.0315  -23.6883 C   0  0  0  0  0  0  0  0  0  0  0  0
   -5.5326    3.4948  -25.5121 C   0  0  0  0  0  0  0  0  0  0  0  0
   -7.0372    5.6123  -25.5580 C   0  0  0  0  0  0  0  0  0  0  0  0
   -5.9718    4.7621  -26.1838 O   0  0  0  0  0  0  0  0  0  0  0  0
   -4.5668    1.2669  -19.7479 C   0  0  0  0  0  0  0  0  0  0  0  0
   -4.9820   -0.1458  -19.4620 C   0  0  0  0  0  0  0  0  0  0  0  0
   -5.5897   -0.6448  -18.1846 C   0  0  0  0  0  0  0  0  0  0  0  0
   -5.8457   -2.1150  -18.3364 N   0  0  0  0  0  0  0  0  0  0  0  0
   -5.3962   -2.5247  -19.7076 N   0  0  0  0  0  0  0  0  0  0  0  0
   -4.8624   -1.3076  -20.4032 C   0  0  0  0  0  0  0  0  0  0  0  0
   -5.4433   -3.4328  -20.0848 H   0  0  0  0  0  0  0  0  0  0  0  0
 29 30  1  0  0  0
 30 28  1  0  0  0
  1 28  1  0  0  0
  1  2  1  0  0  0
  2  3  1  0  0  0
  3 18  1  0  0  0
 18 19  2  0  0  0
 19 20  1  0  0  0
 20 21  2  0  0  0
 21 22  1  0  0  0
 22 23  2  0  0  0
 23 24  1  0  0  0
 24 25  2  0  0  0
 25 26  1  0  0  0
 26 27  2  0  0  0
  3  4  1  0  0  0
  4  5  2  0  0  0
  4  6  1  0  0  0
  6  7  1  0  0  0
  7  8  1  0  0  0
  8 31  1  0  0  0
 31 32  1  0  0  0
 32 33  1  0  0  0
 33 34  2  0  0  0
 34 35  1  0  0  0
 35 36  1  0  0  0
  8  9  1  0  0  0
  9 10  2  0  0  0
  9 11  1  0  0  0
 11 12  2  0  0  0
 12 13  1  0  0  0
 13 14  2  0  0  0
 14 15  1  0  0  0
 14 16  1  0  0  0
 16 17  2  0  0  0
  6  1  1  0  0  0
 36 32  2  0  0  0
 17 11  1  0  0  0
 27 18  1  0  0  0
 17  6  1  0  0  0
 27 22  1  0  0  0
 35 37  1  0  0  0
M  END
> <minimizedAffinity>
-7.15056

> <CNNscore>
0.2874208093

> <CNNaffinity>
5.7542815208

> <CNN_VS>
1.6539002657

> <CNNaffinity_variance>
0.3339223266

$$$$
