


 37 42  0  0  0  0  0  0  0  0999 V2000
    7.9856   -1.4607   22.8775 C   0  0  0  0  0  0  0  0  0  0  0  0
    7.6233   -0.3579   21.9275 C   0  0  0  0  0  0  0  0  0  0  0  0
    6.4569   -0.8194   21.1049 N   0  0  0  0  0  0  0  0  0  0  0  0
    6.0985   -2.2074   21.5466 C   0  0  0  0  0  0  0  0  0  0  0  0
    4.9898   -3.0509   20.9903 O   0  0  0  0  0  0  0  0  0  0  0  0
    7.0433   -2.6037   22.6421 C   0  0  0  0  0  0  0  0  0  0  0  0
    6.0342   -3.6581   22.2956 C   0  0  0  0  0  0  0  0  0  0  0  0
    6.0363   -4.9675   23.0273 N   0  0  0  0  0  0  0  0  0  0  0  0
    7.0474   -5.2226   24.1055 C   0  0  0  0  0  0  0  0  0  0  0  0
    7.0494   -6.5321   24.8371 O   0  0  0  0  0  0  0  0  0  0  0  0
    8.0565   -4.1683   24.4521 C   0  0  0  0  0  0  0  0  0  0  0  0
    9.0675   -4.4234   25.5303 C   0  0  0  0  0  0  0  0  0  0  0  0
   10.0766   -3.3690   25.8768 C   0  0  0  0  0  0  0  0  0  0  0  0
   10.0745   -2.0596   25.1451 C   0  0  0  0  0  0  0  0  0  0  0  0
   11.0837   -1.0052   25.4917 Cl  0  0  0  0  0  0  0  0  0  0  0  0
    9.0635   -1.8045   24.0669 C   0  0  0  0  0  0  0  0  0  0  0  0
    8.0544   -2.8588   23.7204 C   0  0  0  0  0  0  0  0  0  0  0  0
    5.7697   -0.0313   20.0294 C   0  0  0  0  0  0  0  0  0  0  0  0
    6.2591   -0.1090   18.6137 C   0  0  0  0  0  0  0  0  0  0  0  0
    5.5719    0.6791   17.5383 N   0  0  0  0  0  0  0  0  0  0  0  0
    4.3952    1.5449   17.8786 C   0  0  0  0  0  0  0  0  0  0  0  0
    3.9058    1.6225   19.2944 C   0  0  0  0  0  0  0  0  0  0  0  0
    2.7290    2.4883   19.6347 C   0  0  0  0  0  0  0  0  0  0  0  0
    2.2396    2.5659   21.0505 C   0  0  0  0  0  0  0  0  0  0  0  0
    2.9269    1.7778   22.1259 C   0  0  0  0  0  0  0  0  0  0  0  0
    4.1036    0.9121   21.7855 C   0  0  0  0  0  0  0  0  0  0  0  0
    4.5930    0.8344   20.3699 C   0  0  0  0  0  0  0  0  0  0  0  0
    9.0955   -1.4265   23.8860 C   0  0  0  0  0  0  0  0  0  0  0  0
   11.0584   -1.2333   22.1949 C   0  0  0  0  0  0  0  0  0  0  0  0
   10.4348   -0.8661   23.5087 O   0  0  0  0  0  0  0  0  0  0  0  0
    5.0272   -6.0219   22.6807 C   0  0  0  0  0  0  0  0  0  0  0  0
    3.7764   -6.1602   23.4970 C   0  0  0  0  0  0  0  0  0  0  0  0
    3.6065   -5.7421   24.9274 C   0  0  0  0  0  0  0  0  0  0  0  0
    2.2010   -6.0644   25.3408 N   0  0  0  0  0  0  0  0  0  0  0  0
    1.5023   -6.6817   24.1657 N   0  0  0  0  0  0  0  0  0  0  0  0
    2.4760   -6.7410   23.0262 C   0  0  0  0  0  0  0  0  0  0  0  0
    0.5686   -6.9933   24.1459 H   0  0  0  0  0  0  0  0  0  0  0  0
 29 30  1  0  0  0
 30 28  1  0  0  0
  1 28  1  0  0  0
  1  2  1  0  0  0
  2  3  1  0  0  0
  3 18  1  0  0  0
 18 19  2  0  0  0
 19 20  1  0  0  0
 20 21  2  0  0  0
 21 22  1  0  0  0
 22 23  2  0  0  0
 23 24  1  0  0  0
 24 25  2  0  0  0
 25 26  1  0  0  0
 26 27  2  0  0  0
  3  4  1  0  0  0
  4  5  2  0  0  0
  4  6  1  0  0  0
  6  7  1  0  0  0
  7  8  1  0  0  0
  8 31  1  0  0  0
 31 32  1  0  0  0
 32 33  1  0  0  0
 33 34  2  0  0  0
 34 35  1  0  0  0
 35 36  1  0  0  0
  8  9  1  0  0  0
  9 10  2  0  0  0
  9 11  1  0  0  0
 11 12  2  0  0  0
 12 13  1  0  0  0
 13 14  2  0  0  0
 14 15  1  0  0  0
 14 16  1  0  0  0
 16 17  2  0  0  0
  6  1  1  0  0  0
 36 32  2  0  0  0
 17 11  1  0  0  0
 27 18  1  0  0  0
 17  6  1  0  0  0
 27 22  1  0  0  0
 35 37  1  0  0  0
M  END
> <minimizedAffinity>
-8.00752

> <CNNscore>
0.5756900311

> <CNNaffinity>
6.6947860718

> <CNN_VS>
3.8541216850

> <CNNaffinity_variance>
0.0134662744

$$$$



 37 42  0  0  0  0  0  0  0  0999 V2000
    9.4339   -2.6136   24.1687 C   0  0  0  0  0  0  0  0  0  0  0  0
    8.6879   -3.8135   24.6725 C   0  0  0  0  0  0  0  0  0  0  0  0
    7.2530   -3.6747   24.2582 N   0  0  0  0  0  0  0  0  0  0  0  0
    7.1122   -2.3890   23.4984 C   0  0  0  0  0  0  0  0  0  0  0  0
    5.8458   -1.8532   22.8991 O   0  0  0  0  0  0  0  0  0  0  0  0
    8.4601   -1.7332   23.4431 C   0  0  0  0  0  0  0  0  0  0  0  0
    7.3765   -0.9596   22.7522 C   0  0  0  0  0  0  0  0  0  0  0  0
    7.6948    0.3471   22.0879 N   0  0  0  0  0  0  0  0  0  0  0  0
    9.0965    0.8802   22.1146 C   0  0  0  0  0  0  0  0  0  0  0  0
    9.4147    2.1869   21.4504 O   0  0  0  0  0  0  0  0  0  0  0  0
   10.1802    0.1066   22.8056 C   0  0  0  0  0  0  0  0  0  0  0  0
   11.5820    0.6398   22.8322 C   0  0  0  0  0  0  0  0  0  0  0  0
   12.6655   -0.1338   23.5231 C   0  0  0  0  0  0  0  0  0  0  0  0
   12.3473   -1.4405   24.1874 C   0  0  0  0  0  0  0  0  0  0  0  0
   13.4310   -2.2141   24.8783 Cl  0  0  0  0  0  0  0  0  0  0  0  0
   10.9455   -1.9737   24.1607 C   0  0  0  0  0  0  0  0  0  0  0  0
    9.8620   -1.2001   23.4698 C   0  0  0  0  0  0  0  0  0  0  0  0
    6.1521   -4.6502   24.5520 C   0  0  0  0  0  0  0  0  0  0  0  0
    5.7278   -5.6393   23.5073 C   0  0  0  0  0  0  0  0  0  0  0  0
    4.6269   -6.6148   23.8011 N   0  0  0  0  0  0  0  0  0  0  0  0
    3.9503   -6.6012   25.1398 C   0  0  0  0  0  0  0  0  0  0  0  0
    4.3746   -5.6120   26.1846 C   0  0  0  0  0  0  0  0  0  0  0  0
    3.6979   -5.5984   27.5233 C   0  0  0  0  0  0  0  0  0  0  0  0
    4.1222   -4.6092   28.5680 C   0  0  0  0  0  0  0  0  0  0  0  0
    5.2231   -3.6337   28.2741 C   0  0  0  0  0  0  0  0  0  0  0  0
    5.8997   -3.6474   26.9354 C   0  0  0  0  0  0  0  0  0  0  0  0
    5.4755   -4.6365   25.8907 C   0  0  0  0  0  0  0  0  0  0  0  0
   10.8970   -2.3419   24.3575 C   0  0  0  0  0  0  0  0  0  0  0  0
   11.2310   -4.0191   26.3133 C   0  0  0  0  0  0  0  0  0  0  0  0
   11.5706   -2.7210   25.6430 O   0  0  0  0  0  0  0  0  0  0  0  0
    6.6111    1.1207   21.3970 C   0  0  0  0  0  0  0  0  0  0  0  0
    6.0908    0.6591   20.0680 C   0  0  0  0  0  0  0  0  0  0  0  0
    6.7641   -0.3154   19.1478 C   0  0  0  0  0  0  0  0  0  0  0  0
    5.8953   -0.4858   17.9369 N   0  0  0  0  0  0  0  0  0  0  0  0
    4.6850    0.3835   18.1089 N   0  0  0  0  0  0  0  0  0  0  0  0
    4.8058    1.0911   19.4259 C   0  0  0  0  0  0  0  0  0  0  0  0
    3.9418    0.4738   17.4695 H   0  0  0  0  0  0  0  0  0  0  0  0
 29 30  1  0  0  0
 30 28  1  0  0  0
  1 28  1  0  0  0
  1  2  1  0  0  0
  2  3  1  0  0  0
  3 18  1  0  0  0
 18 19  2  0  0  0
 19 20  1  0  0  0
 20 21  2  0  0  0
 21 22  1  0  0  0
 22 23  2  0  0  0
 23 24  1  0  0  0
 24 25  2  0  0  0
 25 26  1  0  0  0
 26 27  2  0  0  0
  3  4  1  0  0  0
  4  5  2  0  0  0
  4  6  1  0  0  0
  6  7  1  0  0  0
  7  8  1  0  0  0
  8 31  1  0  0  0
 31 32  1  0  0  0
 32 33  1  0  0  0
 33 34  2  0  0  0
 34 35  1  0  0  0
 35 36  1  0  0  0
  8  9  1  0  0  0
  9 10  2  0  0  0
  9 11  1  0  0  0
 11 12  2  0  0  0
 12 13  1  0  0  0
 13 14  2  0  0  0
 14 15  1  0  0  0
 14 16  1  0  0  0
 16 17  2  0  0  0
  6  1  1  0  0  0
 36 32  2  0  0  0
 17 11  1  0  0  0
 27 18  1  0  0  0
 17  6  1  0  0  0
 27 22  1  0  0  0
 35 37  1  0  0  0
M  END
> <minimizedAffinity>
-9.08262

> <CNNscore>
0.5565223098

> <CNNaffinity>
6.8716635704

> <CNN_VS>
3.8242340088

> <CNNaffinity_variance>
0.0926750973

$$$$



 37 42  0  0  0  0  0  0  0  0999 V2000
    7.6468   -2.0356   22.6709 C   0  0  0  0  0  0  0  0  0  0  0  0
    6.5367   -1.7741   21.6965 C   0  0  0  0  0  0  0  0  0  0  0  0
    6.8268   -0.4776   21.0003 N   0  0  0  0  0  0  0  0  0  0  0  0
    8.1163    0.0622   21.5443 C   0  0  0  0  0  0  0  0  0  0  0  0
    8.7821    1.3405   21.1287 O   0  0  0  0  0  0  0  0  0  0  0  0
    8.6231   -0.9007   22.5768 C   0  0  0  0  0  0  0  0  0  0  0  0
    9.5051    0.2953   22.3729 C   0  0  0  0  0  0  0  0  0  0  0  0
   10.7666    0.4416   23.1711 N   0  0  0  0  0  0  0  0  0  0  0  0
   11.1461   -0.6080   24.1732 C   0  0  0  0  0  0  0  0  0  0  0  0
   12.4076   -0.4617   24.9715 O   0  0  0  0  0  0  0  0  0  0  0  0
   10.2640   -1.8041   24.3772 C   0  0  0  0  0  0  0  0  0  0  0  0
   10.6435   -2.8537   25.3792 C   0  0  0  0  0  0  0  0  0  0  0  0
    9.7614   -4.0496   25.5831 C   0  0  0  0  0  0  0  0  0  0  0  0
    8.4999   -4.1960   24.7849 C   0  0  0  0  0  0  0  0  0  0  0  0
    7.6178   -5.3920   24.9888 Cl  0  0  0  0  0  0  0  0  0  0  0  0
    8.1204   -3.1464   23.7828 C   0  0  0  0  0  0  0  0  0  0  0  0
    9.0025   -1.9504   23.5789 C   0  0  0  0  0  0  0  0  0  0  0  0
    5.9769    0.1661   19.9452 C   0  0  0  0  0  0  0  0  0  0  0  0
    6.3745    0.0732   18.5019 C   0  0  0  0  0  0  0  0  0  0  0  0
    5.5245    0.7169   17.4469 N   0  0  0  0  0  0  0  0  0  0  0  0
    4.2769    1.4535   17.8352 C   0  0  0  0  0  0  0  0  0  0  0  0
    3.8792    1.5464   19.2786 C   0  0  0  0  0  0  0  0  0  0  0  0
    2.6315    2.2831   19.6669 C   0  0  0  0  0  0  0  0  0  0  0  0
    2.2340    2.3759   21.1103 C   0  0  0  0  0  0  0  0  0  0  0  0
    3.0840    1.7322   22.1652 C   0  0  0  0  0  0  0  0  0  0  0  0
    4.3316    0.9956   21.7769 C   0  0  0  0  0  0  0  0  0  0  0  0
    4.7292    0.9027   20.3336 C   0  0  0  0  0  0  0  0  0  0  0  0
    7.7606   -3.2235   23.5797 C   0  0  0  0  0  0  0  0  0  0  0  0
    5.9651   -4.7241   22.4510 C   0  0  0  0  0  0  0  0  0  0  0  0
    7.3034   -4.5730   23.1111 O   0  0  0  0  0  0  0  0  0  0  0  0
   11.6487    1.6376   22.9672 C   0  0  0  0  0  0  0  0  0  0  0  0
   11.0422    3.0033   22.8366 C   0  0  0  0  0  0  0  0  0  0  0  0
    9.7065    3.4295   23.3698 C   0  0  0  0  0  0  0  0  0  0  0  0
    9.5037    4.8721   23.0127 N   0  0  0  0  0  0  0  0  0  0  0  0
   10.7141    5.3376   22.2587 N   0  0  0  0  0  0  0  0  0  0  0  0
   11.6649    4.1826   22.1499 C   0  0  0  0  0  0  0  0  0  0  0  0
   10.8589    6.2423   21.8985 H   0  0  0  0  0  0  0  0  0  0  0  0
 29 30  1  0  0  0
 30 28  1  0  0  0
  1 28  1  0  0  0
  1  2  1  0  0  0
  2  3  1  0  0  0
  3 18  1  0  0  0
 18 19  2  0  0  0
 19 20  1  0  0  0
 20 21  2  0  0  0
 21 22  1  0  0  0
 22 23  2  0  0  0
 23 24  1  0  0  0
 24 25  2  0  0  0
 25 26  1  0  0  0
 26 27  2  0  0  0
  3  4  1  0  0  0
  4  5  2  0  0  0
  4  6  1  0  0  0
  6  7  1  0  0  0
  7  8  1  0  0  0
  8 31  1  0  0  0
 31 32  1  0  0  0
 32 33  1  0  0  0
 33 34  2  0  0  0
 34 35  1  0  0  0
 35 36  1  0  0  0
  8  9  1  0  0  0
  9 10  2  0  0  0
  9 11  1  0  0  0
 11 12  2  0  0  0
 12 13  1  0  0  0
 13 14  2  0  0  0
 14 15  1  0  0  0
 14 16  1  0  0  0
 16 17  2  0  0  0
  6  1  1  0  0  0
 36 32  2  0  0  0
 17 11  1  0  0  0
 27 18  1  0  0  0
 17  6  1  0  0  0
 27 22  1  0  0  0
 35 37  1  0  0  0
M  END
> <minimizedAffinity>
-8.89481

> <CNNscore>
0.5096987486

> <CNNaffinity>
6.7141928673

> <CNN_VS>
3.4222157001

> <CNNaffinity_variance>
0.2258785218

$$$$



 37 42  0  0  0  0  0  0  0  0999 V2000
   10.4049   -0.5070   24.1888 C   0  0  0  0  0  0  0  0  0  0  0  0
   11.1847    0.7694   24.0757 C   0  0  0  0  0  0  0  0  0  0  0  0
   10.3936    1.7224   23.2295 N   0  0  0  0  0  0  0  0  0  0  0  0
    9.1249    1.0350   22.8197 C   0  0  0  0  0  0  0  0  0  0  0  0
    8.0398    1.6223   21.9668 O   0  0  0  0  0  0  0  0  0  0  0  0
    9.1319   -0.3429   23.4125 C   0  0  0  0  0  0  0  0  0  0  0  0
    7.9084   -0.0338   22.6018 C   0  0  0  0  0  0  0  0  0  0  0  0
    6.8314   -1.0662   22.4458 N   0  0  0  0  0  0  0  0  0  0  0  0
    6.9781   -2.4078   23.1005 C   0  0  0  0  0  0  0  0  0  0  0  0
    5.9012   -3.4402   22.9445 O   0  0  0  0  0  0  0  0  0  0  0  0
    8.2017   -2.7169   23.9114 C   0  0  0  0  0  0  0  0  0  0  0  0
    8.3483   -4.0584   24.5661 C   0  0  0  0  0  0  0  0  0  0  0  0
    9.5718   -4.3675   25.3769 C   0  0  0  0  0  0  0  0  0  0  0  0
   10.6487   -3.3351   25.5329 C   0  0  0  0  0  0  0  0  0  0  0  0
   11.8723   -3.6442   26.3437 Cl  0  0  0  0  0  0  0  0  0  0  0  0
   10.5021   -1.9936   24.8781 C   0  0  0  0  0  0  0  0  0  0  0  0
    9.2786   -1.6845   24.0674 C   0  0  0  0  0  0  0  0  0  0  0  0
   10.7998    3.1178   22.8584 C   0  0  0  0  0  0  0  0  0  0  0  0
   12.1532    3.3719   22.2638 C   0  0  0  0  0  0  0  0  0  0  0  0
   12.5594    4.7673   21.8926 N   0  0  0  0  0  0  0  0  0  0  0  0
   11.6121    5.9086   22.1161 C   0  0  0  0  0  0  0  0  0  0  0  0
   10.2587    5.6546   22.7107 C   0  0  0  0  0  0  0  0  0  0  0  0
    9.3114    6.7960   22.9342 C   0  0  0  0  0  0  0  0  0  0  0  0
    7.9579    6.5419   23.5289 C   0  0  0  0  0  0  0  0  0  0  0  0
    7.5518    5.1465   23.9000 C   0  0  0  0  0  0  0  0  0  0  0  0
    8.4990    4.0051   23.6765 C   0  0  0  0  0  0  0  0  0  0  0  0
    9.8524    4.2592   23.0819 C   0  0  0  0  0  0  0  0  0  0  0  0
   10.8245   -1.7324   24.9453 C   0  0  0  0  0  0  0  0  0  0  0  0
   13.0327   -1.8852   23.5850 C   0  0  0  0  0  0  0  0  0  0  0  0
   12.2100   -2.2814   24.7749 O   0  0  0  0  0  0  0  0  0  0  0  0
    5.6079   -0.7571   21.6350 C   0  0  0  0  0  0  0  0  0  0  0  0
    5.7472   -0.2605   20.2265 C   0  0  0  0  0  0  0  0  0  0  0  0
    6.9404   -0.4524   19.3380 C   0  0  0  0  0  0  0  0  0  0  0  0
    6.6485    0.2047   18.0215 N   0  0  0  0  0  0  0  0  0  0  0  0
    5.2749    0.8028   18.0964 N   0  0  0  0  0  0  0  0  0  0  0  0
    4.7179    0.5153   19.4592 C   0  0  0  0  0  0  0  0  0  0  0  0
    4.8190    1.2972   17.3775 H   0  0  0  0  0  0  0  0  0  0  0  0
 29 30  1  0  0  0
 30 28  1  0  0  0
  1 28  1  0  0  0
  1  2  1  0  0  0
  2  3  1  0  0  0
  3 18  1  0  0  0
 18 19  2  0  0  0
 19 20  1  0  0  0
 20 21  2  0  0  0
 21 22  1  0  0  0
 22 23  2  0  0  0
 23 24  1  0  0  0
 24 25  2  0  0  0
 25 26  1  0  0  0
 26 27  2  0  0  0
  3  4  1  0  0  0
  4  5  2  0  0  0
  4  6  1  0  0  0
  6  7  1  0  0  0
  7  8  1  0  0  0
  8 31  1  0  0  0
 31 32  1  0  0  0
 32 33  1  0  0  0
 33 34  2  0  0  0
 34 35  1  0  0  0
 35 36  1  0  0  0
  8  9  1  0  0  0
  9 10  2  0  0  0
  9 11  1  0  0  0
 11 12  2  0  0  0
 12 13  1  0  0  0
 13 14  2  0  0  0
 14 15  1  0  0  0
 14 16  1  0  0  0
 16 17  2  0  0  0
  6  1  1  0  0  0
 36 32  2  0  0  0
 17 11  1  0  0  0
 27 18  1  0  0  0
 17  6  1  0  0  0
 27 22  1  0  0  0
 35 37  1  0  0  0
M  END
> <minimizedAffinity>
-8.87167

> <CNNscore>
0.4367384911

> <CNNaffinity>
6.8641347885

> <CNN_VS>
2.9978318214

> <CNNaffinity_variance>
0.0822699219

$$$$



 37 42  0  0  0  0  0  0  0  0999 V2000
    6.2947    0.1451   25.4183 C   0  0  0  0  0  0  0  0  0  0  0  0
    7.7663   -0.0737   25.6093 C   0  0  0  0  0  0  0  0  0  0  0  0
    8.4530    0.2350   24.3119 N   0  0  0  0  0  0  0  0  0  0  0  0
    7.4057    0.6445   23.3192 C   0  0  0  0  0  0  0  0  0  0  0  0
    7.6496    1.0402   21.8930 O   0  0  0  0  0  0  0  0  0  0  0  0
    6.0718    0.5890   24.0029 C   0  0  0  0  0  0  0  0  0  0  0  0
    6.0044    1.0214   22.5682 C   0  0  0  0  0  0  0  0  0  0  0  0
    4.6801    1.3517   21.9459 N   0  0  0  0  0  0  0  0  0  0  0  0
    3.4233    1.2496   22.7583 C   0  0  0  0  0  0  0  0  0  0  0  0
    2.0991    1.5798   22.1360 O   0  0  0  0  0  0  0  0  0  0  0  0
    3.4907    0.8171   24.1931 C   0  0  0  0  0  0  0  0  0  0  0  0
    2.2339    0.7149   25.0054 C   0  0  0  0  0  0  0  0  0  0  0  0
    2.3014    0.2824   26.4401 C   0  0  0  0  0  0  0  0  0  0  0  0
    3.6256   -0.0479   27.0624 C   0  0  0  0  0  0  0  0  0  0  0  0
    3.6930   -0.4804   28.4972 Cl  0  0  0  0  0  0  0  0  0  0  0  0
    4.8824    0.0543   26.2501 C   0  0  0  0  0  0  0  0  0  0  0  0
    4.8150    0.4868   24.8154 C   0  0  0  0  0  0  0  0  0  0  0  0
    9.9279    0.1492   24.0528 C   0  0  0  0  0  0  0  0  0  0  0  0
   10.5856    1.1316   23.1296 C   0  0  0  0  0  0  0  0  0  0  0  0
   12.0605    1.0458   22.8705 N   0  0  0  0  0  0  0  0  0  0  0  0
   12.8778   -0.0223   23.5346 C   0  0  0  0  0  0  0  0  0  0  0  0
   12.2201   -1.0048   24.4578 C   0  0  0  0  0  0  0  0  0  0  0  0
   13.0374   -2.0730   25.1219 C   0  0  0  0  0  0  0  0  0  0  0  0
   12.3796   -3.0554   26.0451 C   0  0  0  0  0  0  0  0  0  0  0  0
   10.9047   -2.9696   26.3042 C   0  0  0  0  0  0  0  0  0  0  0  0
   10.0875   -1.9014   25.6401 C   0  0  0  0  0  0  0  0  0  0  0  0
   10.7451   -0.9190   24.7169 C   0  0  0  0  0  0  0  0  0  0  0  0
    5.2324   -0.0464   26.4599 C   0  0  0  0  0  0  0  0  0  0  0  0
    6.3493    1.6627   28.0666 C   0  0  0  0  0  0  0  0  0  0  0  0
    5.4319    0.4972   27.8436 O   0  0  0  0  0  0  0  0  0  0  0  0
    4.6127    1.7842   20.5111 C   0  0  0  0  0  0  0  0  0  0  0  0
    4.9042    0.8006   19.4168 C   0  0  0  0  0  0  0  0  0  0  0  0
    4.8773    1.0862   17.9445 C   0  0  0  0  0  0  0  0  0  0  0  0
    5.2303   -0.1792   17.2204 N   0  0  0  0  0  0  0  0  0  0  0  0
    5.4753   -1.2468   18.2453 N   0  0  0  0  0  0  0  0  0  0  0  0
    5.2738   -0.6412   19.6027 C   0  0  0  0  0  0  0  0  0  0  0  0
    5.7246   -2.1809   18.0595 H   0  0  0  0  0  0  0  0  0  0  0  0
 29 30  1  0  0  0
 30 28  1  0  0  0
  1 28  1  0  0  0
  1  2  1  0  0  0
  2  3  1  0  0  0
  3 18  1  0  0  0
 18 19  2  0  0  0
 19 20  1  0  0  0
 20 21  2  0  0  0
 21 22  1  0  0  0
 22 23  2  0  0  0
 23 24  1  0  0  0
 24 25  2  0  0  0
 25 26  1  0  0  0
 26 27  2  0  0  0
  3  4  1  0  0  0
  4  5  2  0  0  0
  4  6  1  0  0  0
  6  7  1  0  0  0
  7  8  1  0  0  0
  8 31  1  0  0  0
 31 32  1  0  0  0
 32 33  1  0  0  0
 33 34  2  0  0  0
 34 35  1  0  0  0
 35 36  1  0  0  0
  8  9  1  0  0  0
  9 10  2  0  0  0
  9 11  1  0  0  0
 11 12  2  0  0  0
 12 13  1  0  0  0
 13 14  2  0  0  0
 14 15  1  0  0  0
 14 16  1  0  0  0
 16 17  2  0  0  0
  6  1  1  0  0  0
 36 32  2  0  0  0
 17 11  1  0  0  0
 27 18  1  0  0  0
 17  6  1  0  0  0
 27 22  1  0  0  0
 35 37  1  0  0  0
M  END
> <minimizedAffinity>
-7.89602

> <CNNscore>
0.4002284706

> <CNNaffinity>
6.3322377205

> <CNN_VS>
2.5343418121

> <CNNaffinity_variance>
0.0976001173

$$$$



 37 42  0  0  0  0  0  0  0  0999 V2000
    9.2249   -1.9908   25.1631 C   0  0  0  0  0  0  0  0  0  0  0  0
    8.5253   -3.0433   25.9711 C   0  0  0  0  0  0  0  0  0  0  0  0
    7.0676   -3.0049   25.6193 N   0  0  0  0  0  0  0  0  0  0  0  0
    6.8664   -1.9287   24.5940 C   0  0  0  0  0  0  0  0  0  0  0  0
    5.5610   -1.5464   23.9617 O   0  0  0  0  0  0  0  0  0  0  0  0
    8.1996   -1.3019   24.3120 C   0  0  0  0  0  0  0  0  0  0  0  0
    7.0683   -0.7091   23.5255 C   0  0  0  0  0  0  0  0  0  0  0  0
    7.3303    0.4100   22.5617 N   0  0  0  0  0  0  0  0  0  0  0  0
    8.7236    0.9363   22.3844 C   0  0  0  0  0  0  0  0  0  0  0  0
    8.9856    2.0555   21.4206 O   0  0  0  0  0  0  0  0  0  0  0  0
    9.8551    0.3436   23.1710 C   0  0  0  0  0  0  0  0  0  0  0  0
   11.2484    0.8699   22.9937 C   0  0  0  0  0  0  0  0  0  0  0  0
   12.3798    0.2771   23.7802 C   0  0  0  0  0  0  0  0  0  0  0  0
   12.1178   -0.8420   24.7440 C   0  0  0  0  0  0  0  0  0  0  0  0
   13.2492   -1.4348   25.5305 Cl  0  0  0  0  0  0  0  0  0  0  0  0
   10.7244   -1.3683   24.9213 C   0  0  0  0  0  0  0  0  0  0  0  0
    9.5931   -0.7756   24.1348 C   0  0  0  0  0  0  0  0  0  0  0  0
    5.9988   -3.8878   26.1923 C   0  0  0  0  0  0  0  0  0  0  0  0
    5.4332   -5.0093   25.3726 C   0  0  0  0  0  0  0  0  0  0  0  0
    4.3644   -5.8921   25.9455 N   0  0  0  0  0  0  0  0  0  0  0  0
    3.8613   -5.6533   27.3383 C   0  0  0  0  0  0  0  0  0  0  0  0
    4.4270   -4.5317   28.1581 C   0  0  0  0  0  0  0  0  0  0  0  0
    3.9238   -4.2930   29.5509 C   0  0  0  0  0  0  0  0  0  0  0  0
    4.4895   -3.1713   30.3707 C   0  0  0  0  0  0  0  0  0  0  0  0
    5.5582   -2.2886   29.7976 C   0  0  0  0  0  0  0  0  0  0  0  0
    6.0614   -2.5274   28.4049 C   0  0  0  0  0  0  0  0  0  0  0  0
    5.4957   -3.6489   27.5851 C   0  0  0  0  0  0  0  0  0  0  0  0
   10.6922   -1.6814   25.1998 C   0  0  0  0  0  0  0  0  0  0  0  0
   11.4790   -3.8977   26.3038 C   0  0  0  0  0  0  0  0  0  0  0  0
   11.6911   -2.7951   25.3093 O   0  0  0  0  0  0  0  0  0  0  0  0
    6.1988    1.0028   21.7752 C   0  0  0  0  0  0  0  0  0  0  0  0
    5.9637    0.5715   20.3580 C   0  0  0  0  0  0  0  0  0  0  0  0
    6.9169   -0.2124   19.5053 C   0  0  0  0  0  0  0  0  0  0  0  0
    6.2765   -0.4201   18.1649 N   0  0  0  0  0  0  0  0  0  0  0  0
    4.9274    0.2355   18.1891 N   0  0  0  0  0  0  0  0  0  0  0  0
    4.7342    0.8483   19.5445 C   0  0  0  0  0  0  0  0  0  0  0  0
    4.2822    0.2594   17.4459 H   0  0  0  0  0  0  0  0  0  0  0  0
 29 30  1  0  0  0
 30 28  1  0  0  0
  1 28  1  0  0  0
  1  2  1  0  0  0
  2  3  1  0  0  0
  3 18  1  0  0  0
 18 19  2  0  0  0
 19 20  1  0  0  0
 20 21  2  0  0  0
 21 22  1  0  0  0
 22 23  2  0  0  0
 23 24  1  0  0  0
 24 25  2  0  0  0
 25 26  1  0  0  0
 26 27  2  0  0  0
  3  4  1  0  0  0
  4  5  2  0  0  0
  4  6  1  0  0  0
  6  7  1  0  0  0
  7  8  1  0  0  0
  8 31  1  0  0  0
 31 32  1  0  0  0
 32 33  1  0  0  0
 33 34  2  0  0  0
 34 35  1  0  0  0
 35 36  1  0  0  0
  8  9  1  0  0  0
  9 10  2  0  0  0
  9 11  1  0  0  0
 11 12  2  0  0  0
 12 13  1  0  0  0
 13 14  2  0  0  0
 14 15  1  0  0  0
 14 16  1  0  0  0
 16 17  2  0  0  0
  6  1  1  0  0  0
 36 32  2  0  0  0
 17 11  1  0  0  0
 27 18  1  0  0  0
 17  6  1  0  0  0
 27 22  1  0  0  0
 35 37  1  0  0  0
M  END
> <minimizedAffinity>
-8.98687

> <CNNscore>
0.3982982635

> <CNNaffinity>
6.4934883118

> <CNN_VS>
2.5863451958

> <CNNaffinity_variance>
0.1385987103

$$$$



 37 42  0  0  0  0  0  0  0  0999 V2000
    9.3064   -0.3361   22.1006 C   0  0  0  0  0  0  0  0  0  0  0  0
    8.4705    0.5135   21.1898 C   0  0  0  0  0  0  0  0  0  0  0  0
    7.0846   -0.0597   21.1637 N   0  0  0  0  0  0  0  0  0  0  0  0
    7.0640   -1.2635   22.0583 C   0  0  0  0  0  0  0  0  0  0  0  0
    5.8784   -2.1423   22.3268 O   0  0  0  0  0  0  0  0  0  0  0  0
    8.4372   -1.4344   22.6374 C   0  0  0  0  0  0  0  0  0  0  0  0
    7.4513   -2.4706   23.0893 C   0  0  0  0  0  0  0  0  0  0  0  0
    7.8799   -3.5501   24.0384 N   0  0  0  0  0  0  0  0  0  0  0  0
    9.2944   -3.5935   24.5356 C   0  0  0  0  0  0  0  0  0  0  0  0
    9.7230   -4.6730   25.4848 O   0  0  0  0  0  0  0  0  0  0  0  0
   10.2804   -2.5572   24.0837 C   0  0  0  0  0  0  0  0  0  0  0  0
   11.6949   -2.6006   24.5809 C   0  0  0  0  0  0  0  0  0  0  0  0
   12.6808   -1.5644   24.1289 C   0  0  0  0  0  0  0  0  0  0  0  0
   12.2521   -0.4849   23.1798 C   0  0  0  0  0  0  0  0  0  0  0  0
   13.2381    0.5514   22.7278 Cl  0  0  0  0  0  0  0  0  0  0  0  0
   10.8376   -0.4415   22.6826 C   0  0  0  0  0  0  0  0  0  0  0  0
    9.8518   -1.4777   23.1346 C   0  0  0  0  0  0  0  0  0  0  0  0
    5.9232    0.4767   20.3805 C   0  0  0  0  0  0  0  0  0  0  0  0
    5.9172    0.3759   18.8840 C   0  0  0  0  0  0  0  0  0  0  0  0
    4.7558    0.9123   18.1008 N   0  0  0  0  0  0  0  0  0  0  0  0
    3.6004    1.5496   18.8142 C   0  0  0  0  0  0  0  0  0  0  0  0
    3.6064    1.6504   20.3108 C   0  0  0  0  0  0  0  0  0  0  0  0
    2.4510    2.2877   21.0243 C   0  0  0  0  0  0  0  0  0  0  0  0
    2.4571    2.3884   22.5209 C   0  0  0  0  0  0  0  0  0  0  0  0
    3.6184    1.8520   23.3040 C   0  0  0  0  0  0  0  0  0  0  0  0
    4.7738    1.2148   22.5905 C   0  0  0  0  0  0  0  0  0  0  0  0
    4.7678    1.1140   21.0940 C   0  0  0  0  0  0  0  0  0  0  0  0
   10.7569   -0.1245   22.4187 C   0  0  0  0  0  0  0  0  0  0  0  0
   10.3702    2.3679   23.0421 C   0  0  0  0  0  0  0  0  0  0  0  0
   11.1940    1.1180   23.1365 O   0  0  0  0  0  0  0  0  0  0  0  0
    6.8939   -4.5863   24.4904 C   0  0  0  0  0  0  0  0  0  0  0  0
    6.0740   -5.3325   23.4800 C   0  0  0  0  0  0  0  0  0  0  0  0
    4.5856   -5.5158   23.5144 C   0  0  0  0  0  0  0  0  0  0  0  0
    4.1902   -6.3230   22.3135 N   0  0  0  0  0  0  0  0  0  0  0  0
    5.4342   -6.6385   21.5369 N   0  0  0  0  0  0  0  0  0  0  0  0
    6.5984   -6.0264   22.2579 C   0  0  0  0  0  0  0  0  0  0  0  0
    5.4787   -7.1565   20.7009 H   0  0  0  0  0  0  0  0  0  0  0  0
 29 30  1  0  0  0
 30 28  1  0  0  0
  1 28  1  0  0  0
  1  2  1  0  0  0
  2  3  1  0  0  0
  3 18  1  0  0  0
 18 19  2  0  0  0
 19 20  1  0  0  0
 20 21  2  0  0  0
 21 22  1  0  0  0
 22 23  2  0  0  0
 23 24  1  0  0  0
 24 25  2  0  0  0
 25 26  1  0  0  0
 26 27  2  0  0  0
  3  4  1  0  0  0
  4  5  2  0  0  0
  4  6  1  0  0  0
  6  7  1  0  0  0
  7  8  1  0  0  0
  8 31  1  0  0  0
 31 32  1  0  0  0
 32 33  1  0  0  0
 33 34  2  0  0  0
 34 35  1  0  0  0
 35 36  1  0  0  0
  8  9  1  0  0  0
  9 10  2  0  0  0
  9 11  1  0  0  0
 11 12  2  0  0  0
 12 13  1  0  0  0
 13 14  2  0  0  0
 14 15  1  0  0  0
 14 16  1  0  0  0
 16 17  2  0  0  0
  6  1  1  0  0  0
 36 32  2  0  0  0
 17 11  1  0  0  0
 27 18  1  0  0  0
 17  6  1  0  0  0
 27 22  1  0  0  0
 35 37  1  0  0  0
M  END
> <minimizedAffinity>
-8.94083

> <CNNscore>
0.2875829637

> <CNNaffinity>
6.5622138977

> <CNN_VS>
1.8871809244

> <CNNaffinity_variance>
0.3204110563

$$$$



 37 42  0  0  0  0  0  0  0  0999 V2000
    9.1614   -1.2389   22.6062 C   0  0  0  0  0  0  0  0  0  0  0  0
    8.7123   -0.6451   21.3040 C   0  0  0  0  0  0  0  0  0  0  0  0
    7.2129   -0.6050   21.3055 N   0  0  0  0  0  0  0  0  0  0  0  0
    6.7353   -1.1741   22.6086 C   0  0  0  0  0  0  0  0  0  0  0  0
    5.3045   -1.3249   23.0332 O   0  0  0  0  0  0  0  0  0  0  0  0
    7.9395   -1.5659   23.4125 C   0  0  0  0  0  0  0  0  0  0  0  0
    6.6335   -1.8369   24.0986 C   0  0  0  0  0  0  0  0  0  0  0  0
    6.6185   -2.4483   25.4682 N   0  0  0  0  0  0  0  0  0  0  0  0
    7.9095   -2.7887   26.1518 C   0  0  0  0  0  0  0  0  0  0  0  0
    7.8945   -3.4001   27.5214 O   0  0  0  0  0  0  0  0  0  0  0  0
    9.2157   -2.5177   25.4657 C   0  0  0  0  0  0  0  0  0  0  0  0
   10.5067   -2.8581   26.1492 C   0  0  0  0  0  0  0  0  0  0  0  0
   11.8127   -2.5871   25.4631 C   0  0  0  0  0  0  0  0  0  0  0  0
   11.8277   -1.9757   24.0935 C   0  0  0  0  0  0  0  0  0  0  0  0
   13.1339   -1.7047   23.4074 Cl  0  0  0  0  0  0  0  0  0  0  0  0
   10.5367   -1.6353   23.4099 C   0  0  0  0  0  0  0  0  0  0  0  0
    9.2307   -1.9063   24.0960 C   0  0  0  0  0  0  0  0  0  0  0  0
    6.3436   -0.0868   20.1983 C   0  0  0  0  0  0  0  0  0  0  0  0
    6.3700   -0.7479   18.8522 C   0  0  0  0  0  0  0  0  0  0  0  0
    5.5007   -0.2297   17.7450 N   0  0  0  0  0  0  0  0  0  0  0  0
    4.6051    0.9496   17.9840 C   0  0  0  0  0  0  0  0  0  0  0  0
    4.5788    1.6107   19.3302 C   0  0  0  0  0  0  0  0  0  0  0  0
    3.6831    2.7901   19.5692 C   0  0  0  0  0  0  0  0  0  0  0  0
    3.6569    3.4511   20.9154 C   0  0  0  0  0  0  0  0  0  0  0  0
    4.5261    2.9329   22.0225 C   0  0  0  0  0  0  0  0  0  0  0  0
    5.4217    1.7536   21.7835 C   0  0  0  0  0  0  0  0  0  0  0  0
    5.4480    1.0925   20.4374 C   0  0  0  0  0  0  0  0  0  0  0  0
   10.5829   -1.4660   23.0280 C   0  0  0  0  0  0  0  0  0  0  0  0
   11.1286    1.0736   23.0803 C   0  0  0  0  0  0  0  0  0  0  0  0
   11.5802   -0.3494   22.9356 O   0  0  0  0  0  0  0  0  0  0  0  0
    5.3124   -2.7193   26.1543 C   0  0  0  0  0  0  0  0  0  0  0  0
    4.8859   -1.8726   27.3167 C   0  0  0  0  0  0  0  0  0  0  0  0
    4.8853   -0.3733   27.3621 C   0  0  0  0  0  0  0  0  0  0  0  0
    4.3843    0.0494   28.7112 N   0  0  0  0  0  0  0  0  0  0  0  0
    4.0752   -1.1887   29.4998 N   0  0  0  0  0  0  0  0  0  0  0  0
    4.3853   -2.3765   28.6379 C   0  0  0  0  0  0  0  0  0  0  0  0
    3.7296   -1.2167   30.4212 H   0  0  0  0  0  0  0  0  0  0  0  0
 29 30  1  0  0  0
 30 28  1  0  0  0
  1 28  1  0  0  0
  1  2  1  0  0  0
  2  3  1  0  0  0
  3 18  1  0  0  0
 18 19  2  0  0  0
 19 20  1  0  0  0
 20 21  2  0  0  0
 21 22  1  0  0  0
 22 23  2  0  0  0
 23 24  1  0  0  0
 24 25  2  0  0  0
 25 26  1  0  0  0
 26 27  2  0  0  0
  3  4  1  0  0  0
  4  5  2  0  0  0
  4  6  1  0  0  0
  6  7  1  0  0  0
  7  8  1  0  0  0
  8 31  1  0  0  0
 31 32  1  0  0  0
 32 33  1  0  0  0
 33 34  2  0  0  0
 34 35  1  0  0  0
 35 36  1  0  0  0
  8  9  1  0  0  0
  9 10  2  0  0  0
  9 11  1  0  0  0
 11 12  2  0  0  0
 12 13  1  0  0  0
 13 14  2  0  0  0
 14 15  1  0  0  0
 14 16  1  0  0  0
 16 17  2  0  0  0
  6  1  1  0  0  0
 36 32  2  0  0  0
 17 11  1  0  0  0
 27 18  1  0  0  0
 17  6  1  0  0  0
 27 22  1  0  0  0
 35 37  1  0  0  0
M  END
> <minimizedAffinity>
-8.09333

> <CNNscore>
0.2727476358

> <CNNaffinity>
6.5453543663

> <CNN_VS>
1.7852299213

> <CNNaffinity_variance>
0.0604213402

$$$$



 37 42  0  0  0  0  0  0  0  0999 V2000
    9.4681   -0.6832   23.6922 C   0  0  0  0  0  0  0  0  0  0  0  0
   10.3837    0.4936   23.8565 C   0  0  0  0  0  0  0  0  0  0  0  0
    9.9665    1.5464   22.8728 N   0  0  0  0  0  0  0  0  0  0  0  0
    8.7931    1.0202   22.1006 C   0  0  0  0  0  0  0  0  0  0  0  0
    8.0570    1.7449   21.0129 O   0  0  0  0  0  0  0  0  0  0  0  0
    8.4851   -0.3577   22.6069 C   0  0  0  0  0  0  0  0  0  0  0  0
    7.5747    0.1064   21.5089 C   0  0  0  0  0  0  0  0  0  0  0  0
    6.4765   -0.7889   21.0165 N   0  0  0  0  0  0  0  0  0  0  0  0
    6.2887   -2.1482   21.6222 C   0  0  0  0  0  0  0  0  0  0  0  0
    5.1904   -3.0434   21.1298 O   0  0  0  0  0  0  0  0  0  0  0  0
    7.1991   -2.6123   22.7203 C   0  0  0  0  0  0  0  0  0  0  0  0
    7.0112   -3.9717   23.3260 C   0  0  0  0  0  0  0  0  0  0  0  0
    7.9216   -4.4358   24.4240 C   0  0  0  0  0  0  0  0  0  0  0  0
    9.0199   -3.5405   24.9164 C   0  0  0  0  0  0  0  0  0  0  0  0
    9.9303   -4.0047   26.0145 Cl  0  0  0  0  0  0  0  0  0  0  0  0
    9.2077   -2.1812   24.3107 C   0  0  0  0  0  0  0  0  0  0  0  0
    8.2973   -1.7171   23.2127 C   0  0  0  0  0  0  0  0  0  0  0  0
   10.6098    2.8894   22.6929 C   0  0  0  0  0  0  0  0  0  0  0  0
   12.0422    2.9827   22.2580 C   0  0  0  0  0  0  0  0  0  0  0  0
   12.6855    4.3258   22.0781 N   0  0  0  0  0  0  0  0  0  0  0  0
   11.8962    5.5756   22.3332 C   0  0  0  0  0  0  0  0  0  0  0  0
   10.4636    5.4823   22.7682 C   0  0  0  0  0  0  0  0  0  0  0  0
    9.6743    6.7321   23.0233 C   0  0  0  0  0  0  0  0  0  0  0  0
    8.2418    6.6387   23.4582 C   0  0  0  0  0  0  0  0  0  0  0  0
    7.5987    5.2956   23.6381 C   0  0  0  0  0  0  0  0  0  0  0  0
    8.3880    4.0459   23.3830 C   0  0  0  0  0  0  0  0  0  0  0  0
    9.8204    4.1392   22.9480 C   0  0  0  0  0  0  0  0  0  0  0  0
    9.5256   -1.9611   24.4755 C   0  0  0  0  0  0  0  0  0  0  0  0
   12.1133   -2.1812   24.5456 C   0  0  0  0  0  0  0  0  0  0  0  0
   10.7585   -2.8142   24.4298 O   0  0  0  0  0  0  0  0  0  0  0  0
    5.5661   -0.3247   19.9184 C   0  0  0  0  0  0  0  0  0  0  0  0
    4.6316    0.8246   20.1544 C   0  0  0  0  0  0  0  0  0  0  0  0
    4.1191    1.7728   19.1112 C   0  0  0  0  0  0  0  0  0  0  0  0
    3.2164    2.7618   19.7871 N   0  0  0  0  0  0  0  0  0  0  0  0
    3.1710    2.4249   21.2481 N   0  0  0  0  0  0  0  0  0  0  0  0
    4.0457    1.2277   21.4751 C   0  0  0  0  0  0  0  0  0  0  0  0
    2.6573    2.9053   21.9371 H   0  0  0  0  0  0  0  0  0  0  0  0
 29 30  1  0  0  0
 30 28  1  0  0  0
  1 28  1  0  0  0
  1  2  1  0  0  0
  2  3  1  0  0  0
  3 18  1  0  0  0
 18 19  2  0  0  0
 19 20  1  0  0  0
 20 21  2  0  0  0
 21 22  1  0  0  0
 22 23  2  0  0  0
 23 24  1  0  0  0
 24 25  2  0  0  0
 25 26  1  0  0  0
 26 27  2  0  0  0
  3  4  1  0  0  0
  4  5  2  0  0  0
  4  6  1  0  0  0
  6  7  1  0  0  0
  7  8  1  0  0  0
  8 31  1  0  0  0
 31 32  1  0  0  0
 32 33  1  0  0  0
 33 34  2  0  0  0
 34 35  1  0  0  0
 35 36  1  0  0  0
  8  9  1  0  0  0
  9 10  2  0  0  0
  9 11  1  0  0  0
 11 12  2  0  0  0
 12 13  1  0  0  0
 13 14  2  0  0  0
 14 15  1  0  0  0
 14 16  1  0  0  0
 16 17  2  0  0  0
  6  1  1  0  0  0
 36 32  2  0  0  0
 17 11  1  0  0  0
 27 18  1  0  0  0
 17  6  1  0  0  0
 27 22  1  0  0  0
 35 37  1  0  0  0
M  END
> <minimizedAffinity>
-8.43241

> <CNNscore>
0.2604904175

> <CNNaffinity>
6.5144758224

> <CNN_VS>
1.6969585419

> <CNNaffinity_variance>
0.1671984494

$$$$
