


 40 45  0  0  0  0  0  0  0  0999 V2000
   10.3471    0.5789   23.4814 N   0  0  0  0  0  0  0  0  0  0  0  0
    8.9465    0.1181   23.7570 C   0  0  0  0  0  0  0  0  0  0  0  0
    8.7074   -1.0597   24.6546 C   0  0  0  0  0  0  0  0  0  0  0  0
    8.3149   -2.2155   25.5264 C   0  0  0  0  0  0  0  0  0  0  0  0
    8.8244   -3.0735   26.2197 O   0  0  0  0  0  0  0  0  0  0  0  0
    6.8183   -2.3157   25.5174 N   0  0  0  0  0  0  0  0  0  0  0  0
    6.2857   -1.2218   24.6401 C   0  0  0  0  0  0  0  0  0  0  0  0
    7.4532   -0.4455   24.1069 C   0  0  0  0  0  0  0  0  0  0  0  0
    9.8689   -1.7767   25.2766 C   0  0  0  0  0  0  0  0  0  0  0  0
    9.6298   -2.9545   26.1742 C   0  0  0  0  0  0  0  0  0  0  0  0
   10.7913   -3.6714   26.7961 C   0  0  0  0  0  0  0  0  0  0  0  0
   10.5522   -4.8492   27.6937 Cl  0  0  0  0  0  0  0  0  0  0  0  0
   12.1919   -3.2106   26.5204 C   0  0  0  0  0  0  0  0  0  0  0  0
   12.4310   -2.0329   25.6229 C   0  0  0  0  0  0  0  0  0  0  0  0
   11.2695   -1.3159   25.0009 C   0  0  0  0  0  0  0  0  0  0  0  0
   11.5086   -0.1381   24.1033 C   0  0  0  0  0  0  0  0  0  0  0  0
   12.9092    0.3227   23.8277 O   0  0  0  0  0  0  0  0  0  0  0  0
    5.9983   -3.3315   26.2561 C   0  0  0  0  0  0  0  0  0  0  0  0
    5.6175   -4.6187   25.5865 C   0  0  0  0  0  0  0  0  0  0  0  0
    4.7975   -5.6345   26.3252 N   0  0  0  0  0  0  0  0  0  0  0  0
    4.3582   -5.3631   27.7335 C   0  0  0  0  0  0  0  0  0  0  0  0
    4.7389   -4.0760   28.4031 C   0  0  0  0  0  0  0  0  0  0  0  0
    4.2995   -3.8047   29.8115 C   0  0  0  0  0  0  0  0  0  0  0  0
    4.6802   -2.5175   30.4810 C   0  0  0  0  0  0  0  0  0  0  0  0
    5.5003   -1.5017   29.7423 C   0  0  0  0  0  0  0  0  0  0  0  0
    5.9396   -1.7731   28.3340 C   0  0  0  0  0  0  0  0  0  0  0  0
    5.5589   -3.0602   27.6644 C   0  0  0  0  0  0  0  0  0  0  0  0
   10.5861    1.7567   22.5838 C   0  0  0  0  0  0  0  0  0  0  0  0
   11.8330    2.5761   22.7378 C   0  0  0  0  0  0  0  0  0  0  0  0
   11.3067    5.1081   22.9872 C   0  0  0  0  0  0  0  0  0  0  0  0
   11.8130    3.8228   23.5717 N   0  0  0  0  0  0  0  0  0  0  0  0
   12.1437    3.7965   24.5363 H   0  0  0  0  0  0  0  0  0  0  0  0
   12.1573    2.9488   23.9692 H   0  0  0  0  0  0  0  0  0  0  0  0
    7.3795    0.7373   23.1873 C   0  0  0  0  0  0  0  0  0  0  0  0
    6.0541    1.1861   22.6474 O   0  0  0  0  0  0  0  0  0  0  0  0
    5.2813    0.2954   21.7204 C   0  0  0  0  0  0  0  0  0  0  0  0
    4.5385    0.8859   20.5587 C   0  0  0  0  0  0  0  0  0  0  0  0
    4.7851    0.9863   19.0825 C   0  0  0  0  0  0  0  0  0  0  0  0
    3.4880    1.7210   18.9157 O   0  0  0  0  0  0  0  0  0  0  0  0
    3.2413    1.6205   20.3920 C   0  0  0  0  0  0  0  0  0  0  0  0
 30 31  1  0  0  0
 31 29  1  0  0  0
 29 28  1  0  0  0
 28  1  1  0  0  0
  1  2  1  0  0  0
  3  2  1  0  0  0
  3  4  1  0  0  0
  4  5  2  0  0  0
  4  6  1  0  0  0
  6 18  1  0  0  0
 18 19  2  0  0  0
 19 20  1  0  0  0
 20 21  2  0  0  0
 21 22  1  0  0  0
 22 23  2  0  0  0
 23 24  1  0  0  0
 24 25  2  0  0  0
 25 26  1  0  0  0
 26 27  2  0  0  0
  6  7  1  0  0  0
  7  8  1  0  0  0
  8 34  1  0  0  0
 34 35  1  0  0  0
 35 36  1  0  0  0
 36 37  1  0  0  0
 37 38  1  0  0  0
 38 39  1  0  0  0
 39 40  1  0  0  0
  3  9  1  0  0  0
  9 10  2  0  0  0
 10 11  1  0  0  0
 11 12  1  0  0  0
 11 13  2  0  0  0
 13 14  1  0  0  0
 14 15  2  0  0  0
 15 16  1  0  0  0
 16 17  2  0  0  0
 16  1  1  0  0  0
  8  3  1  0  0  0
 40 37  1  0  0  0
 15  9  1  0  0  0
 27 18  1  0  0  0
 27 22  1  0  0  0
 31 32  1  0  0  0
 31 33  1  0  0  0
M  CHG 1  31   1
M  END
> <minimizedAffinity>
-7.68535

> <CNNscore>
0.4370768368

> <CNNaffinity>
6.7631964684

> <CNN_VS>
2.9560365677

> <CNNaffinity_variance>
0.1028334126

$$$$



 40 45  0  0  0  0  0  0  0  0999 V2000
    6.5254    4.5590   23.4829 N   0  0  0  0  0  0  0  0  0  0  0  0
    7.1528    3.2090   23.2990 C   0  0  0  0  0  0  0  0  0  0  0  0
    7.2377    2.2576   24.4555 C   0  0  0  0  0  0  0  0  0  0  0  0
    7.3927    1.2058   25.5137 C   0  0  0  0  0  0  0  0  0  0  0  0
    7.1437    1.0241   26.6890 O   0  0  0  0  0  0  0  0  0  0  0  0
    8.0711    0.0205   24.8933 N   0  0  0  0  0  0  0  0  0  0  0  0
    8.3354    0.3397   23.4517 C   0  0  0  0  0  0  0  0  0  0  0  0
    7.8203    1.7223   23.1811 C   0  0  0  0  0  0  0  0  0  0  0  0
    6.6950    2.6561   25.7960 C   0  0  0  0  0  0  0  0  0  0  0  0
    6.7799    1.7047   26.9525 C   0  0  0  0  0  0  0  0  0  0  0  0
    6.2373    2.1033   28.2929 C   0  0  0  0  0  0  0  0  0  0  0  0
    6.3221    1.1519   29.4495 Cl  0  0  0  0  0  0  0  0  0  0  0  0
    5.6098    3.4533   28.4767 C   0  0  0  0  0  0  0  0  0  0  0  0
    5.5250    4.4047   27.3202 C   0  0  0  0  0  0  0  0  0  0  0  0
    6.0676    4.0061   25.9798 C   0  0  0  0  0  0  0  0  0  0  0  0
    5.9828    4.9576   24.8232 C   0  0  0  0  0  0  0  0  0  0  0  0
    5.3553    6.3076   25.0071 O   0  0  0  0  0  0  0  0  0  0  0  0
    8.4233   -1.2592   25.5920 C   0  0  0  0  0  0  0  0  0  0  0  0
    7.3399   -2.1223   26.1677 C   0  0  0  0  0  0  0  0  0  0  0  0
    7.6922   -3.4020   26.8663 N   0  0  0  0  0  0  0  0  0  0  0  0
    9.1278   -3.8188   26.9892 C   0  0  0  0  0  0  0  0  0  0  0  0
   10.2113   -2.9557   26.4136 C   0  0  0  0  0  0  0  0  0  0  0  0
   11.6470   -3.3725   26.5365 C   0  0  0  0  0  0  0  0  0  0  0  0
   12.7304   -2.5094   25.9608 C   0  0  0  0  0  0  0  0  0  0  0  0
   12.3781   -1.2297   25.2622 C   0  0  0  0  0  0  0  0  0  0  0  0
   10.9424   -0.8129   25.1392 C   0  0  0  0  0  0  0  0  0  0  0  0
    9.8590   -1.6760   25.7149 C   0  0  0  0  0  0  0  0  0  0  0  0
    6.4405    5.5104   22.3263 C   0  0  0  0  0  0  0  0  0  0  0  0
    7.1487    6.8313   22.3882 C   0  0  0  0  0  0  0  0  0  0  0  0
    9.5322    6.3108   23.2816 C   0  0  0  0  0  0  0  0  0  0  0  0
    8.6387    6.8918   22.2261 N   0  0  0  0  0  0  0  0  0  0  0  0
    9.0443    7.3280   21.3981 H   0  0  0  0  0  0  0  0  0  0  0  0
    8.0311    7.2869   21.5083 H   0  0  0  0  0  0  0  0  0  0  0  0
    7.8778    2.4430   21.8669 C   0  0  0  0  0  0  0  0  0  0  0  0
    7.5191    1.7235   20.6006 O   0  0  0  0  0  0  0  0  0  0  0  0
    6.1093    1.2648   20.3721 C   0  0  0  0  0  0  0  0  0  0  0  0
    5.7421    0.5798   19.0892 C   0  0  0  0  0  0  0  0  0  0  0  0
    4.8664    0.9179   17.9192 C   0  0  0  0  0  0  0  0  0  0  0  0
    5.2228   -0.3889   17.2747 O   0  0  0  0  0  0  0  0  0  0  0  0
    6.0986   -0.7270   18.4447 C   0  0  0  0  0  0  0  0  0  0  0  0
 30 31  1  0  0  0
 31 29  1  0  0  0
 29 28  1  0  0  0
 28  1  1  0  0  0
  1  2  1  0  0  0
  3  2  1  0  0  0
  3  4  1  0  0  0
  4  5  2  0  0  0
  4  6  1  0  0  0
  6 18  1  0  0  0
 18 19  2  0  0  0
 19 20  1  0  0  0
 20 21  2  0  0  0
 21 22  1  0  0  0
 22 23  2  0  0  0
 23 24  1  0  0  0
 24 25  2  0  0  0
 25 26  1  0  0  0
 26 27  2  0  0  0
  6  7  1  0  0  0
  7  8  1  0  0  0
  8 34  1  0  0  0
 34 35  1  0  0  0
 35 36  1  0  0  0
 36 37  1  0  0  0
 37 38  1  0  0  0
 38 39  1  0  0  0
 39 40  1  0  0  0
  3  9  1  0  0  0
  9 10  2  0  0  0
 10 11  1  0  0  0
 11 12  1  0  0  0
 11 13  2  0  0  0
 13 14  1  0  0  0
 14 15  2  0  0  0
 15 16  1  0  0  0
 16 17  2  0  0  0
 16  1  1  0  0  0
  8  3  1  0  0  0
 40 37  1  0  0  0
 15  9  1  0  0  0
 27 18  1  0  0  0
 27 22  1  0  0  0
 31 32  1  0  0  0
 31 33  1  0  0  0
M  CHG 1  31   1
M  END
> <minimizedAffinity>
-7.45033

> <CNNscore>
0.4309055805

> <CNNaffinity>
6.4856367111

> <CNN_VS>
2.7946970463

> <CNNaffinity_variance>
0.0424768366

$$$$



 40 45  0  0  0  0  0  0  0  0999 V2000
   10.8776    1.6818   22.7459 N   0  0  0  0  0  0  0  0  0  0  0  0
    9.4822    1.2412   23.0754 C   0  0  0  0  0  0  0  0  0  0  0  0
    9.2589   -0.0149   23.8644 C   0  0  0  0  0  0  0  0  0  0  0  0
    8.8818   -1.2414   24.6412 C   0  0  0  0  0  0  0  0  0  0  0  0
    9.4032   -2.1830   25.2050 O   0  0  0  0  0  0  0  0  0  0  0  0
    7.3853   -1.2909   24.7318 N   0  0  0  0  0  0  0  0  0  0  0  0
    6.8375   -0.0949   24.0110 C   0  0  0  0  0  0  0  0  0  0  0  0
    7.9954    0.6937   23.4749 C   0  0  0  0  0  0  0  0  0  0  0  0
   10.4310   -0.8304   24.3239 C   0  0  0  0  0  0  0  0  0  0  0  0
   10.2077   -2.0864   25.1128 C   0  0  0  0  0  0  0  0  0  0  0  0
   11.3798   -2.9018   25.5723 C   0  0  0  0  0  0  0  0  0  0  0  0
   11.1565   -4.1579   26.3612 Cl  0  0  0  0  0  0  0  0  0  0  0  0
   12.7753   -2.4612   25.2428 C   0  0  0  0  0  0  0  0  0  0  0  0
   12.9986   -1.2052   24.4538 C   0  0  0  0  0  0  0  0  0  0  0  0
   11.8265   -0.3898   23.9944 C   0  0  0  0  0  0  0  0  0  0  0  0
   12.0498    0.8663   23.2054 C   0  0  0  0  0  0  0  0  0  0  0  0
   13.4452    1.3069   22.8759 O   0  0  0  0  0  0  0  0  0  0  0  0
    6.5784   -2.3503   25.4221 C   0  0  0  0  0  0  0  0  0  0  0  0
    6.0331   -2.1011   26.7971 C   0  0  0  0  0  0  0  0  0  0  0  0
    5.2262   -3.1605   27.4873 N   0  0  0  0  0  0  0  0  0  0  0  0
    4.9646   -4.4692   26.8025 C   0  0  0  0  0  0  0  0  0  0  0  0
    5.5098   -4.7184   25.4275 C   0  0  0  0  0  0  0  0  0  0  0  0
    5.2481   -6.0272   24.7428 C   0  0  0  0  0  0  0  0  0  0  0  0
    5.7934   -6.2763   23.3678 C   0  0  0  0  0  0  0  0  0  0  0  0
    6.6003   -5.2168   22.6775 C   0  0  0  0  0  0  0  0  0  0  0  0
    6.8620   -3.9082   23.3623 C   0  0  0  0  0  0  0  0  0  0  0  0
    6.3167   -3.6590   24.7373 C   0  0  0  0  0  0  0  0  0  0  0  0
   11.1009    2.9379   21.9569 C   0  0  0  0  0  0  0  0  0  0  0  0
   12.0432    3.9871   22.4681 C   0  0  0  0  0  0  0  0  0  0  0  0
   10.7712    6.2143   22.8819 C   0  0  0  0  0  0  0  0  0  0  0  0
   11.5485    5.0449   23.4095 N   0  0  0  0  0  0  0  0  0  0  0  0
   11.7406    4.9691   24.4083 H   0  0  0  0  0  0  0  0  0  0  0  0
   12.0770    4.2497   23.7682 H   0  0  0  0  0  0  0  0  0  0  0  0
    7.9056    1.9673   22.6876 C   0  0  0  0  0  0  0  0  0  0  0  0
    7.5383    1.9261   21.2340 O   0  0  0  0  0  0  0  0  0  0  0  0
    6.1573    1.5112   20.8207 C   0  0  0  0  0  0  0  0  0  0  0  0
    5.9557    0.7310   19.5556 C   0  0  0  0  0  0  0  0  0  0  0  0
    6.7002   -0.3680   18.8571 C   0  0  0  0  0  0  0  0  0  0  0  0
    5.6705   -0.3724   17.7663 O   0  0  0  0  0  0  0  0  0  0  0  0
    4.9259    0.7266   18.4648 C   0  0  0  0  0  0  0  0  0  0  0  0
 30 31  1  0  0  0
 31 29  1  0  0  0
 29 28  1  0  0  0
 28  1  1  0  0  0
  1  2  1  0  0  0
  3  2  1  0  0  0
  3  4  1  0  0  0
  4  5  2  0  0  0
  4  6  1  0  0  0
  6 18  1  0  0  0
 18 19  2  0  0  0
 19 20  1  0  0  0
 20 21  2  0  0  0
 21 22  1  0  0  0
 22 23  2  0  0  0
 23 24  1  0  0  0
 24 25  2  0  0  0
 25 26  1  0  0  0
 26 27  2  0  0  0
  6  7  1  0  0  0
  7  8  1  0  0  0
  8 34  1  0  0  0
 34 35  1  0  0  0
 35 36  1  0  0  0
 36 37  1  0  0  0
 37 38  1  0  0  0
 38 39  1  0  0  0
 39 40  1  0  0  0
  3  9  1  0  0  0
  9 10  2  0  0  0
 10 11  1  0  0  0
 11 12  1  0  0  0
 11 13  2  0  0  0
 13 14  1  0  0  0
 14 15  2  0  0  0
 15 16  1  0  0  0
 16 17  2  0  0  0
 16  1  1  0  0  0
  8  3  1  0  0  0
 40 37  1  0  0  0
 15  9  1  0  0  0
 27 18  1  0  0  0
 27 22  1  0  0  0
 31 32  1  0  0  0
 31 33  1  0  0  0
M  CHG 1  31   1
M  END
> <minimizedAffinity>
-8.50733

> <CNNscore>
0.3747935891

> <CNNaffinity>
6.9218912125

> <CNN_VS>
2.5942804813

> <CNNaffinity_variance>
0.1751648486

$$$$



 40 45  0  0  0  0  0  0  0  0999 V2000
    9.9420    0.5799   22.8277 N   0  0  0  0  0  0  0  0  0  0  0  0
    8.7936   -0.3691   22.6522 C   0  0  0  0  0  0  0  0  0  0  0  0
    8.7567   -1.6531   23.4268 C   0  0  0  0  0  0  0  0  0  0  0  0
    8.5836   -2.9671   24.1291 C   0  0  0  0  0  0  0  0  0  0  0  0
    9.1497   -3.6689   24.9436 O   0  0  0  0  0  0  0  0  0  0  0  0
    7.2997   -3.5808   23.6546 N   0  0  0  0  0  0  0  0  0  0  0  0
    6.6794   -2.6461   22.6589 C   0  0  0  0  0  0  0  0  0  0  0  0
    7.5798   -1.4547   22.5181 C   0  0  0  0  0  0  0  0  0  0  0  0
    9.8681   -1.9882   24.3768 C   0  0  0  0  0  0  0  0  0  0  0  0
    9.8312   -3.2722   25.1513 C   0  0  0  0  0  0  0  0  0  0  0  0
   10.9426   -3.6072   26.1013 C   0  0  0  0  0  0  0  0  0  0  0  0
   10.9057   -4.8913   26.8759 Cl  0  0  0  0  0  0  0  0  0  0  0  0
   12.0909   -2.6582   26.2767 C   0  0  0  0  0  0  0  0  0  0  0  0
   12.1279   -1.3743   25.5022 C   0  0  0  0  0  0  0  0  0  0  0  0
   11.0165   -1.0392   24.5522 C   0  0  0  0  0  0  0  0  0  0  0  0
   11.0534    0.2448   23.7776 C   0  0  0  0  0  0  0  0  0  0  0  0
   12.2017    1.1938   23.9531 O   0  0  0  0  0  0  0  0  0  0  0  0
    6.7354   -4.8980   24.0979 C   0  0  0  0  0  0  0  0  0  0  0  0
    7.2839   -6.1762   23.5363 C   0  0  0  0  0  0  0  0  0  0  0  0
    6.7195   -7.4933   23.9796 N   0  0  0  0  0  0  0  0  0  0  0  0
    5.6066   -7.5323   24.9846 C   0  0  0  0  0  0  0  0  0  0  0  0
    5.0581   -6.2541   25.5462 C   0  0  0  0  0  0  0  0  0  0  0  0
    3.9452   -6.2932   26.5512 C   0  0  0  0  0  0  0  0  0  0  0  0
    3.3968   -5.0149   27.1128 C   0  0  0  0  0  0  0  0  0  0  0  0
    3.9611   -3.6978   26.6695 C   0  0  0  0  0  0  0  0  0  0  0  0
    5.0740   -3.6588   25.6645 C   0  0  0  0  0  0  0  0  0  0  0  0
    5.6225   -4.9370   25.1029 C   0  0  0  0  0  0  0  0  0  0  0  0
    9.9789    1.8639   22.0531 C   0  0  0  0  0  0  0  0  0  0  0  0
    9.5376    3.1431   22.7003 C   0  0  0  0  0  0  0  0  0  0  0  0
   11.8522    4.2098   22.1955 C   0  0  0  0  0  0  0  0  0  0  0  0
   10.5041    4.2805   22.8494 N   0  0  0  0  0  0  0  0  0  0  0  0
   10.2446    5.1020   23.3954 H   0  0  0  0  0  0  0  0  0  0  0  0
    9.5874    4.3286   23.2940 H   0  0  0  0  0  0  0  0  0  0  0  0
    7.3447   -0.2724   21.6254 C   0  0  0  0  0  0  0  0  0  0  0  0
    7.2013   -0.4671   20.1451 O   0  0  0  0  0  0  0  0  0  0  0  0
    5.8484   -0.7226   19.5497 C   0  0  0  0  0  0  0  0  0  0  0  0
    4.9470    0.4285   19.2144 C   0  0  0  0  0  0  0  0  0  0  0  0
    4.5385    1.1222   17.9487 C   0  0  0  0  0  0  0  0  0  0  0  0
    3.6722    2.0565   18.7403 O   0  0  0  0  0  0  0  0  0  0  0  0
    4.0807    1.3629   20.0061 C   0  0  0  0  0  0  0  0  0  0  0  0
 30 31  1  0  0  0
 31 29  1  0  0  0
 29 28  1  0  0  0
 28  1  1  0  0  0
  1  2  1  0  0  0
  3  2  1  0  0  0
  3  4  1  0  0  0
  4  5  2  0  0  0
  4  6  1  0  0  0
  6 18  1  0  0  0
 18 19  2  0  0  0
 19 20  1  0  0  0
 20 21  2  0  0  0
 21 22  1  0  0  0
 22 23  2  0  0  0
 23 24  1  0  0  0
 24 25  2  0  0  0
 25 26  1  0  0  0
 26 27  2  0  0  0
  6  7  1  0  0  0
  7  8  1  0  0  0
  8 34  1  0  0  0
 34 35  1  0  0  0
 35 36  1  0  0  0
 36 37  1  0  0  0
 37 38  1  0  0  0
 38 39  1  0  0  0
 39 40  1  0  0  0
  3  9  1  0  0  0
  9 10  2  0  0  0
 10 11  1  0  0  0
 11 12  1  0  0  0
 11 13  2  0  0  0
 13 14  1  0  0  0
 14 15  2  0  0  0
 15 16  1  0  0  0
 16 17  2  0  0  0
 16  1  1  0  0  0
  8  3  1  0  0  0
 40 37  1  0  0  0
 15  9  1  0  0  0
 27 18  1  0  0  0
 27 22  1  0  0  0
 31 32  1  0  0  0
 31 33  1  0  0  0
M  CHG 1  31   1
M  END
> <minimizedAffinity>
-8.44270

> <CNNscore>
0.3568179309

> <CNNaffinity>
6.8029203415

> <CNN_VS>
2.4274039268

> <CNNaffinity_variance>
0.1350484043

$$$$



 40 45  0  0  0  0  0  0  0  0999 V2000
   10.0124    0.4481   22.7735 N   0  0  0  0  0  0  0  0  0  0  0  0
    8.8409   -0.4769   22.6259 C   0  0  0  0  0  0  0  0  0  0  0  0
    8.7893   -1.7532   23.4123 C   0  0  0  0  0  0  0  0  0  0  0  0
    8.5996   -3.0572   24.1290 C   0  0  0  0  0  0  0  0  0  0  0  0
    9.1642   -3.7643   24.9399 O   0  0  0  0  0  0  0  0  0  0  0  0
    7.2948   -3.6466   23.6817 N   0  0  0  0  0  0  0  0  0  0  0  0
    6.6780   -2.7068   22.6885 C   0  0  0  0  0  0  0  0  0  0  0  0
    7.6016   -1.5367   22.5220 C   0  0  0  0  0  0  0  0  0  0  0  0
    9.9093   -2.1046   24.3463 C   0  0  0  0  0  0  0  0  0  0  0  0
    9.8576   -3.3809   25.1326 C   0  0  0  0  0  0  0  0  0  0  0  0
   10.9776   -3.7322   26.0665 C   0  0  0  0  0  0  0  0  0  0  0  0
   10.9260   -5.0085   26.8529 Cl  0  0  0  0  0  0  0  0  0  0  0  0
   12.1491   -2.8071   26.2141 C   0  0  0  0  0  0  0  0  0  0  0  0
   12.2008   -1.5308   25.4278 C   0  0  0  0  0  0  0  0  0  0  0  0
   11.0808   -1.1796   24.4939 C   0  0  0  0  0  0  0  0  0  0  0  0
   11.1324    0.0968   23.7075 C   0  0  0  0  0  0  0  0  0  0  0  0
   12.3040    1.0218   23.8551 O   0  0  0  0  0  0  0  0  0  0  0  0
    6.7096   -4.9473   24.1461 C   0  0  0  0  0  0  0  0  0  0  0  0
    7.2134   -6.2414   23.5792 C   0  0  0  0  0  0  0  0  0  0  0  0
    6.6282   -7.5421   24.0436 N   0  0  0  0  0  0  0  0  0  0  0  0
    5.5391   -7.5486   25.0749 C   0  0  0  0  0  0  0  0  0  0  0  0
    5.0352   -6.2545   25.6419 C   0  0  0  0  0  0  0  0  0  0  0  0
    3.9460   -6.2612   26.6733 C   0  0  0  0  0  0  0  0  0  0  0  0
    3.4422   -4.9670   27.2402 C   0  0  0  0  0  0  0  0  0  0  0  0
    4.0274   -3.6663   26.7758 C   0  0  0  0  0  0  0  0  0  0  0  0
    5.1165   -3.6597   25.7445 C   0  0  0  0  0  0  0  0  0  0  0  0
    5.6204   -4.9538   25.1775 C   0  0  0  0  0  0  0  0  0  0  0  0
   10.0640    1.7244   21.9872 C   0  0  0  0  0  0  0  0  0  0  0  0
    9.8723    3.0407   22.6804 C   0  0  0  0  0  0  0  0  0  0  0  0
   12.0996    4.3391   22.3590 C   0  0  0  0  0  0  0  0  0  0  0  0
   11.0522    3.7603   23.2634 N   0  0  0  0  0  0  0  0  0  0  0  0
   11.1424    3.8560   24.2749 H   0  0  0  0  0  0  0  0  0  0  0  0
   10.3400    3.3667   23.8784 H   0  0  0  0  0  0  0  0  0  0  0  0
    7.3770   -0.3572   21.6230 C   0  0  0  0  0  0  0  0  0  0  0  0
    6.2223    0.5671   21.8727 O   0  0  0  0  0  0  0  0  0  0  0  0
    4.9558    0.0385   22.4782 C   0  0  0  0  0  0  0  0  0  0  0  0
    4.7032    0.1992   23.9480 C   0  0  0  0  0  0  0  0  0  0  0  0
    3.5475    0.6700   24.7803 C   0  0  0  0  0  0  0  0  0  0  0  0
    4.3459    0.4264   26.0267 O   0  0  0  0  0  0  0  0  0  0  0  0
    5.5016   -0.0444   25.1943 C   0  0  0  0  0  0  0  0  0  0  0  0
 30 31  1  0  0  0
 31 29  1  0  0  0
 29 28  1  0  0  0
 28  1  1  0  0  0
  1  2  1  0  0  0
  3  2  1  0  0  0
  3  4  1  0  0  0
  4  5  2  0  0  0
  4  6  1  0  0  0
  6 18  1  0  0  0
 18 19  2  0  0  0
 19 20  1  0  0  0
 20 21  2  0  0  0
 21 22  1  0  0  0
 22 23  2  0  0  0
 23 24  1  0  0  0
 24 25  2  0  0  0
 25 26  1  0  0  0
 26 27  2  0  0  0
  6  7  1  0  0  0
  7  8  1  0  0  0
  8 34  1  0  0  0
 34 35  1  0  0  0
 35 36  1  0  0  0
 36 37  1  0  0  0
 37 38  1  0  0  0
 38 39  1  0  0  0
 39 40  1  0  0  0
  3  9  1  0  0  0
  9 10  2  0  0  0
 10 11  1  0  0  0
 11 12  1  0  0  0
 11 13  2  0  0  0
 13 14  1  0  0  0
 14 15  2  0  0  0
 15 16  1  0  0  0
 16 17  2  0  0  0
 16  1  1  0  0  0
  8  3  1  0  0  0
 40 37  1  0  0  0
 15  9  1  0  0  0
 27 18  1  0  0  0
 27 22  1  0  0  0
 31 32  1  0  0  0
 31 33  1  0  0  0
M  CHG 1  31   1
M  END
> <minimizedAffinity>
-7.27487

> <CNNscore>
0.3090620935

> <CNNaffinity>
6.6367902756

> <CNN_VS>
2.0511803627

> <CNNaffinity_variance>
0.4437243938

$$$$



 40 45  0  0  0  0  0  0  0  0999 V2000
   10.9174    1.7721   22.9288 N   0  0  0  0  0  0  0  0  0  0  0  0
    9.5178    1.5707   23.4292 C   0  0  0  0  0  0  0  0  0  0  0  0
    9.1964    0.3967   24.3058 C   0  0  0  0  0  0  0  0  0  0  0  0
    8.7272   -0.7243   25.1850 C   0  0  0  0  0  0  0  0  0  0  0  0
    9.1593   -1.7144   25.7412 O   0  0  0  0  0  0  0  0  0  0  0  0
    7.2610   -0.5330   25.4375 N   0  0  0  0  0  0  0  0  0  0  0  0
    6.8240    0.7064   24.7143 C   0  0  0  0  0  0  0  0  0  0  0  0
    8.0201    1.2809   24.0148 C   0  0  0  0  0  0  0  0  0  0  0  0
   10.2746   -0.5759   24.6819 C   0  0  0  0  0  0  0  0  0  0  0  0
    9.9532   -1.7499   25.5585 C   0  0  0  0  0  0  0  0  0  0  0  0
   11.0314   -2.7225   25.9346 C   0  0  0  0  0  0  0  0  0  0  0  0
   10.7101   -3.8966   26.8112 Cl  0  0  0  0  0  0  0  0  0  0  0  0
   12.4311   -2.5211   25.4341 C   0  0  0  0  0  0  0  0  0  0  0  0
   12.7525   -1.3471   24.5576 C   0  0  0  0  0  0  0  0  0  0  0  0
   11.6743   -0.3745   24.1815 C   0  0  0  0  0  0  0  0  0  0  0  0
   11.9956    0.7996   23.3049 C   0  0  0  0  0  0  0  0  0  0  0  0
   13.3953    1.0010   22.8045 O   0  0  0  0  0  0  0  0  0  0  0  0
    6.3855   -1.4244   26.2675 C   0  0  0  0  0  0  0  0  0  0  0  0
    6.1011   -2.8266   25.8169 C   0  0  0  0  0  0  0  0  0  0  0  0
    5.2257   -3.7181   26.6469 N   0  0  0  0  0  0  0  0  0  0  0  0
    4.6346   -3.2073   27.9274 C   0  0  0  0  0  0  0  0  0  0  0  0
    4.9190   -1.8051   28.3780 C   0  0  0  0  0  0  0  0  0  0  0  0
    4.3280   -1.2944   29.6586 C   0  0  0  0  0  0  0  0  0  0  0  0
    4.6124    0.1078   30.1091 C   0  0  0  0  0  0  0  0  0  0  0  0
    5.4879    0.9992   29.2791 C   0  0  0  0  0  0  0  0  0  0  0  0
    6.0789    0.4885   27.9986 C   0  0  0  0  0  0  0  0  0  0  0  0
    5.7945   -0.9137   27.5480 C   0  0  0  0  0  0  0  0  0  0  0  0
   11.2388    2.9462   22.0522 C   0  0  0  0  0  0  0  0  0  0  0  0
   12.1117    4.0512   22.5689 C   0  0  0  0  0  0  0  0  0  0  0  0
   10.7969    6.2404   23.0474 C   0  0  0  0  0  0  0  0  0  0  0  0
   11.5606    5.0487   23.5442 N   0  0  0  0  0  0  0  0  0  0  0  0
   11.7050    4.9167   24.5452 H   0  0  0  0  0  0  0  0  0  0  0  0
   12.0798    4.2384   23.8820 H   0  0  0  0  0  0  0  0  0  0  0  0
    8.0370    2.5219   23.1724 C   0  0  0  0  0  0  0  0  0  0  0  0
    6.7486    3.1144   22.6838 O   0  0  0  0  0  0  0  0  0  0  0  0
    5.7844    3.7210   23.6596 C   0  0  0  0  0  0  0  0  0  0  0  0
    6.2968    4.4287   24.8789 C   0  0  0  0  0  0  0  0  0  0  0  0
    6.1746    4.2158   26.3587 C   0  0  0  0  0  0  0  0  0  0  0  0
    7.0214    5.4295   26.6033 O   0  0  0  0  0  0  0  0  0  0  0  0
    7.1436    5.6425   25.1235 C   0  0  0  0  0  0  0  0  0  0  0  0
 30 31  1  0  0  0
 31 29  1  0  0  0
 29 28  1  0  0  0
 28  1  1  0  0  0
  1  2  1  0  0  0
  3  2  1  0  0  0
  3  4  1  0  0  0
  4  5  2  0  0  0
  4  6  1  0  0  0
  6 18  1  0  0  0
 18 19  2  0  0  0
 19 20  1  0  0  0
 20 21  2  0  0  0
 21 22  1  0  0  0
 22 23  2  0  0  0
 23 24  1  0  0  0
 24 25  2  0  0  0
 25 26  1  0  0  0
 26 27  2  0  0  0
  6  7  1  0  0  0
  7  8  1  0  0  0
  8 34  1  0  0  0
 34 35  1  0  0  0
 35 36  1  0  0  0
 36 37  1  0  0  0
 37 38  1  0  0  0
 38 39  1  0  0  0
 39 40  1  0  0  0
  3  9  1  0  0  0
  9 10  2  0  0  0
 10 11  1  0  0  0
 11 12  1  0  0  0
 11 13  2  0  0  0
 13 14  1  0  0  0
 14 15  2  0  0  0
 15 16  1  0  0  0
 16 17  2  0  0  0
 16  1  1  0  0  0
  8  3  1  0  0  0
 40 37  1  0  0  0
 15  9  1  0  0  0
 27 18  1  0  0  0
 27 22  1  0  0  0
 31 32  1  0  0  0
 31 33  1  0  0  0
M  CHG 1  31   1
M  END
> <minimizedAffinity>
-6.83791

> <CNNscore>
0.3063176870

> <CNNaffinity>
6.4987425804

> <CNN_VS>
1.9906797409

> <CNNaffinity_variance>
0.1976767033

$$$$



 40 45  0  0  0  0  0  0  0  0999 V2000
   10.5289    0.9741   23.3292 N   0  0  0  0  0  0  0  0  0  0  0  0
    9.1420    0.6197   23.7777 C   0  0  0  0  0  0  0  0  0  0  0  0
    8.9223   -0.5659   24.6698 C   0  0  0  0  0  0  0  0  0  0  0  0
    8.5496   -1.7163   25.5573 C   0  0  0  0  0  0  0  0  0  0  0  0
    9.0699   -2.6373   26.1552 O   0  0  0  0  0  0  0  0  0  0  0  0
    7.0616   -1.6936   25.7455 N   0  0  0  0  0  0  0  0  0  0  0  0
    6.5146   -0.5291   24.9742 C   0  0  0  0  0  0  0  0  0  0  0  0
    7.6646    0.1678   24.3094 C   0  0  0  0  0  0  0  0  0  0  0  0
   10.0894   -1.3972   25.1135 C   0  0  0  0  0  0  0  0  0  0  0  0
    9.8696   -2.5829   26.0057 C   0  0  0  0  0  0  0  0  0  0  0  0
   11.0367   -3.4141   26.4494 C   0  0  0  0  0  0  0  0  0  0  0  0
   10.8170   -4.5998   27.3415 Cl  0  0  0  0  0  0  0  0  0  0  0  0
   12.4235   -3.0597   26.0010 C   0  0  0  0  0  0  0  0  0  0  0  0
   12.6433   -1.8741   25.1088 C   0  0  0  0  0  0  0  0  0  0  0  0
   11.4762   -1.0428   24.6651 C   0  0  0  0  0  0  0  0  0  0  0  0
   11.6959    0.1429   23.7729 C   0  0  0  0  0  0  0  0  0  0  0  0
   13.0828    0.4973   23.3245 O   0  0  0  0  0  0  0  0  0  0  0  0
    6.2611   -2.6647   26.5616 C   0  0  0  0  0  0  0  0  0  0  0  0
    6.0110   -2.3950   28.0158 C   0  0  0  0  0  0  0  0  0  0  0  0
    5.2106   -3.3662   28.8319 N   0  0  0  0  0  0  0  0  0  0  0  0
    4.6602   -4.6071   28.1938 C   0  0  0  0  0  0  0  0  0  0  0  0
    4.9103   -4.8768   26.7396 C   0  0  0  0  0  0  0  0  0  0  0  0
    4.3599   -6.1179   26.1015 C   0  0  0  0  0  0  0  0  0  0  0  0
    4.6101   -6.3875   24.6473 C   0  0  0  0  0  0  0  0  0  0  0  0
    5.4105   -5.4163   23.8311 C   0  0  0  0  0  0  0  0  0  0  0  0
    5.9609   -4.1754   24.4692 C   0  0  0  0  0  0  0  0  0  0  0  0
    5.7108   -3.9057   25.9235 C   0  0  0  0  0  0  0  0  0  0  0  0
   10.7486    2.1598   22.4371 C   0  0  0  0  0  0  0  0  0  0  0  0
   11.3317    3.4228   22.9982 C   0  0  0  0  0  0  0  0  0  0  0  0
   10.7183    5.9473   22.9793 C   0  0  0  0  0  0  0  0  0  0  0  0
   11.1755    4.7161   22.2546 N   0  0  0  0  0  0  0  0  0  0  0  0
   11.3800    4.7583   21.2563 H   0  0  0  0  0  0  0  0  0  0  0  0
   11.4863    3.8788   21.7619 H   0  0  0  0  0  0  0  0  0  0  0  0
    7.5729    1.3848   23.4373 C   0  0  0  0  0  0  0  0  0  0  0  0
    6.5383    2.4334   23.7194 O   0  0  0  0  0  0  0  0  0  0  0  0
    6.6962    3.3445   24.9004 C   0  0  0  0  0  0  0  0  0  0  0  0
    5.9970    3.0295   26.1896 C   0  0  0  0  0  0  0  0  0  0  0  0
    4.6898    3.4234   26.8110 C   0  0  0  0  0  0  0  0  0  0  0  0
    5.0081    2.5839   28.0127 O   0  0  0  0  0  0  0  0  0  0  0  0
    6.3153    2.1900   27.3912 C   0  0  0  0  0  0  0  0  0  0  0  0
 30 31  1  0  0  0
 31 29  1  0  0  0
 29 28  1  0  0  0
 28  1  1  0  0  0
  1  2  1  0  0  0
  3  2  1  0  0  0
  3  4  1  0  0  0
  4  5  2  0  0  0
  4  6  1  0  0  0
  6 18  1  0  0  0
 18 19  2  0  0  0
 19 20  1  0  0  0
 20 21  2  0  0  0
 21 22  1  0  0  0
 22 23  2  0  0  0
 23 24  1  0  0  0
 24 25  2  0  0  0
 25 26  1  0  0  0
 26 27  2  0  0  0
  6  7  1  0  0  0
  7  8  1  0  0  0
  8 34  1  0  0  0
 34 35  1  0  0  0
 35 36  1  0  0  0
 36 37  1  0  0  0
 37 38  1  0  0  0
 38 39  1  0  0  0
 39 40  1  0  0  0
  3  9  1  0  0  0
  9 10  2  0  0  0
 10 11  1  0  0  0
 11 12  1  0  0  0
 11 13  2  0  0  0
 13 14  1  0  0  0
 14 15  2  0  0  0
 15 16  1  0  0  0
 16 17  2  0  0  0
 16  1  1  0  0  0
  8  3  1  0  0  0
 40 37  1  0  0  0
 15  9  1  0  0  0
 27 18  1  0  0  0
 27 22  1  0  0  0
 31 32  1  0  0  0
 31 33  1  0  0  0
M  CHG 1  31   1
M  END
> <minimizedAffinity>
-6.91114

> <CNNscore>
0.2965826690

> <CNNaffinity>
6.4088912010

> <CNN_VS>
1.9007660151

> <CNNaffinity_variance>
0.5406469703

$$$$



 40 45  0  0  0  0  0  0  0  0999 V2000
   10.0277    0.9903   23.2739 N   0  0  0  0  0  0  0  0  0  0  0  0
    8.6602    0.4357   23.5430 C   0  0  0  0  0  0  0  0  0  0  0  0
    8.5007   -0.7808   24.4058 C   0  0  0  0  0  0  0  0  0  0  0  0
    8.1866   -1.9842   25.2444 C   0  0  0  0  0  0  0  0  0  0  0  0
    8.7530   -2.8293   25.9087 O   0  0  0  0  0  0  0  0  0  0  0  0
    6.6990   -2.1766   25.2404 N   0  0  0  0  0  0  0  0  0  0  0  0
    6.0937   -1.0920   24.3994 C   0  0  0  0  0  0  0  0  0  0  0  0
    7.2072   -0.2294   23.8836 C   0  0  0  0  0  0  0  0  0  0  0  0
    9.7087   -1.4428   24.9997 C   0  0  0  0  0  0  0  0  0  0  0  0
    9.5492   -2.6594   25.8625 C   0  0  0  0  0  0  0  0  0  0  0  0
   10.7572   -3.3213   26.4563 C   0  0  0  0  0  0  0  0  0  0  0  0
   10.5977   -4.5379   27.3192 Cl  0  0  0  0  0  0  0  0  0  0  0  0
   12.1247   -2.7667   26.1872 C   0  0  0  0  0  0  0  0  0  0  0  0
   12.2842   -1.5502   25.3243 C   0  0  0  0  0  0  0  0  0  0  0  0
   11.0762   -0.8883   24.7306 C   0  0  0  0  0  0  0  0  0  0  0  0
   11.2357    0.3284   23.8677 C   0  0  0  0  0  0  0  0  0  0  0  0
   12.6032    0.8829   23.5986 O   0  0  0  0  0  0  0  0  0  0  0  0
    5.9485   -3.2627   25.9524 C   0  0  0  0  0  0  0  0  0  0  0  0
    5.6024   -4.5319   25.2316 C   0  0  0  0  0  0  0  0  0  0  0  0
    4.8519   -5.6180   25.9436 N   0  0  0  0  0  0  0  0  0  0  0  0
    4.4476   -5.4351   27.3765 C   0  0  0  0  0  0  0  0  0  0  0  0
    4.7937   -4.1660   28.0973 C   0  0  0  0  0  0  0  0  0  0  0  0
    4.3893   -3.9831   29.5302 C   0  0  0  0  0  0  0  0  0  0  0  0
    4.7355   -2.7139   30.2509 C   0  0  0  0  0  0  0  0  0  0  0  0
    5.4860   -1.6277   29.5389 C   0  0  0  0  0  0  0  0  0  0  0  0
    5.8904   -1.8107   28.1061 C   0  0  0  0  0  0  0  0  0  0  0  0
    5.5442   -3.0798   27.3852 C   0  0  0  0  0  0  0  0  0  0  0  0
   10.1872    2.2069   22.4110 C   0  0  0  0  0  0  0  0  0  0  0  0
   10.7806    3.4599   22.9836 C   0  0  0  0  0  0  0  0  0  0  0  0
   10.7525    6.0501   22.7840 C   0  0  0  0  0  0  0  0  0  0  0  0
   10.0173    4.7495   22.9174 N   0  0  0  0  0  0  0  0  0  0  0  0
    8.9984    4.7419   22.9630 H   0  0  0  0  0  0  0  0  0  0  0  0
    9.5174    3.8650   23.0081 H   0  0  0  0  0  0  0  0  0  0  0  0
    7.0540    0.9735   23.0006 C   0  0  0  0  0  0  0  0  0  0  0  0
    5.7312    1.2689   22.3584 O   0  0  0  0  0  0  0  0  0  0  0  0
    4.7575    2.1878   23.0348 C   0  0  0  0  0  0  0  0  0  0  0  0
    4.1940    3.3624   22.2913 C   0  0  0  0  0  0  0  0  0  0  0  0
    3.8894    3.6603   20.8530 C   0  0  0  0  0  0  0  0  0  0  0  0
    3.3972    5.0236   21.2397 O   0  0  0  0  0  0  0  0  0  0  0  0
    3.7019    4.7256   22.6780 C   0  0  0  0  0  0  0  0  0  0  0  0
 30 31  1  0  0  0
 31 29  1  0  0  0
 29 28  1  0  0  0
 28  1  1  0  0  0
  1  2  1  0  0  0
  3  2  1  0  0  0
  3  4  1  0  0  0
  4  5  2  0  0  0
  4  6  1  0  0  0
  6 18  1  0  0  0
 18 19  2  0  0  0
 19 20  1  0  0  0
 20 21  2  0  0  0
 21 22  1  0  0  0
 22 23  2  0  0  0
 23 24  1  0  0  0
 24 25  2  0  0  0
 25 26  1  0  0  0
 26 27  2  0  0  0
  6  7  1  0  0  0
  7  8  1  0  0  0
  8 34  1  0  0  0
 34 35  1  0  0  0
 35 36  1  0  0  0
 36 37  1  0  0  0
 37 38  1  0  0  0
 38 39  1  0  0  0
 39 40  1  0  0  0
  3  9  1  0  0  0
  9 10  2  0  0  0
 10 11  1  0  0  0
 11 12  1  0  0  0
 11 13  2  0  0  0
 13 14  1  0  0  0
 14 15  2  0  0  0
 15 16  1  0  0  0
 16 17  2  0  0  0
 16  1  1  0  0  0
  8  3  1  0  0  0
 40 37  1  0  0  0
 15  9  1  0  0  0
 27 18  1  0  0  0
 27 22  1  0  0  0
 31 32  1  0  0  0
 31 33  1  0  0  0
M  CHG 1  31   1
M  END
> <minimizedAffinity>
-6.91872

> <CNNscore>
0.2925797403

> <CNNaffinity>
6.5676994324

> <CNN_VS>
1.9215757847

> <CNNaffinity_variance>
0.1863846481

$$$$



 40 45  0  0  0  0  0  0  0  0999 V2000
   10.8509    1.4041   23.0674 N   0  0  0  0  0  0  0  0  0  0  0  0
    9.4370    1.2269   23.5360 C   0  0  0  0  0  0  0  0  0  0  0  0
    9.0818    0.0761   24.4301 C   0  0  0  0  0  0  0  0  0  0  0  0
    8.5794   -1.0203   25.3219 C   0  0  0  0  0  0  0  0  0  0  0  0
    8.9875   -2.0015   25.9112 O   0  0  0  0  0  0  0  0  0  0  0  0
    7.1092   -0.8098   25.5322 N   0  0  0  0  0  0  0  0  0  0  0  0
    6.7030    0.4167   24.7703 C   0  0  0  0  0  0  0  0  0  0  0  0
    7.9221    0.9642   24.0892 C   0  0  0  0  0  0  0  0  0  0  0  0
   10.1406   -0.8976   24.8557 C   0  0  0  0  0  0  0  0  0  0  0  0
    9.7854   -2.0484   25.7498 C   0  0  0  0  0  0  0  0  0  0  0  0
   10.8442   -3.0220   26.1753 C   0  0  0  0  0  0  0  0  0  0  0  0
   10.4891   -4.1729   27.0695 Cl  0  0  0  0  0  0  0  0  0  0  0  0
   12.2580   -2.8449   25.7067 C   0  0  0  0  0  0  0  0  0  0  0  0
   12.6132   -1.6941   24.8126 C   0  0  0  0  0  0  0  0  0  0  0  0
   11.5545   -0.7204   24.3871 C   0  0  0  0  0  0  0  0  0  0  0  0
   11.9096    0.4304   23.4929 C   0  0  0  0  0  0  0  0  0  0  0  0
   13.3235    0.6076   23.0243 O   0  0  0  0  0  0  0  0  0  0  0  0
    6.2041   -1.6742   26.3591 C   0  0  0  0  0  0  0  0  0  0  0  0
    6.7731   -2.8142   27.1508 C   0  0  0  0  0  0  0  0  0  0  0  0
    5.8681   -3.6785   27.9777 N   0  0  0  0  0  0  0  0  0  0  0  0
    4.3941   -3.4028   28.0130 C   0  0  0  0  0  0  0  0  0  0  0  0
    3.8251   -2.2628   27.2214 C   0  0  0  0  0  0  0  0  0  0  0  0
    2.3510   -1.9871   27.2567 C   0  0  0  0  0  0  0  0  0  0  0  0
    1.7821   -0.8471   26.4650 C   0  0  0  0  0  0  0  0  0  0  0  0
    2.6872    0.0172   25.6381 C   0  0  0  0  0  0  0  0  0  0  0  0
    4.1612   -0.2584   25.6028 C   0  0  0  0  0  0  0  0  0  0  0  0
    4.7301   -1.3985   26.3944 C   0  0  0  0  0  0  0  0  0  0  0  0
   11.2060    2.5549   22.1732 C   0  0  0  0  0  0  0  0  0  0  0  0
   12.1446    3.6197   22.6583 C   0  0  0  0  0  0  0  0  0  0  0  0
   11.1061    6.0011   22.6629 C   0  0  0  0  0  0  0  0  0  0  0  0
   11.6121    4.8031   23.4104 N   0  0  0  0  0  0  0  0  0  0  0  0
   11.5941    4.7933   24.4302 H   0  0  0  0  0  0  0  0  0  0  0  0
   11.9562    3.9885   23.9187 H   0  0  0  0  0  0  0  0  0  0  0  0
    7.9727    2.1855   23.2197 C   0  0  0  0  0  0  0  0  0  0  0  0
    7.3865    2.1485   21.8396 O   0  0  0  0  0  0  0  0  0  0  0  0
    6.3269    1.1420   21.5014 C   0  0  0  0  0  0  0  0  0  0  0  0
    6.1718    0.6622   20.0888 C   0  0  0  0  0  0  0  0  0  0  0  0
    6.9336   -0.2724   19.1963 C   0  0  0  0  0  0  0  0  0  0  0  0
    5.9524   -0.0165   18.0909 O   0  0  0  0  0  0  0  0  0  0  0  0
    5.1907    0.9181   18.9833 C   0  0  0  0  0  0  0  0  0  0  0  0
 30 31  1  0  0  0
 31 29  1  0  0  0
 29 28  1  0  0  0
 28  1  1  0  0  0
  1  2  1  0  0  0
  3  2  1  0  0  0
  3  4  1  0  0  0
  4  5  2  0  0  0
  4  6  1  0  0  0
  6 18  1  0  0  0
 18 19  2  0  0  0
 19 20  1  0  0  0
 20 21  2  0  0  0
 21 22  1  0  0  0
 22 23  2  0  0  0
 23 24  1  0  0  0
 24 25  2  0  0  0
 25 26  1  0  0  0
 26 27  2  0  0  0
  6  7  1  0  0  0
  7  8  1  0  0  0
  8 34  1  0  0  0
 34 35  1  0  0  0
 35 36  1  0  0  0
 36 37  1  0  0  0
 37 38  1  0  0  0
 38 39  1  0  0  0
 39 40  1  0  0  0
  3  9  1  0  0  0
  9 10  2  0  0  0
 10 11  1  0  0  0
 11 12  1  0  0  0
 11 13  2  0  0  0
 13 14  1  0  0  0
 14 15  2  0  0  0
 15 16  1  0  0  0
 16 17  2  0  0  0
 16  1  1  0  0  0
  8  3  1  0  0  0
 40 37  1  0  0  0
 15  9  1  0  0  0
 27 18  1  0  0  0
 27 22  1  0  0  0
 31 32  1  0  0  0
 31 33  1  0  0  0
M  CHG 1  31   1
M  END
> <minimizedAffinity>
-7.54391

> <CNNscore>
0.2918688059

> <CNNaffinity>
6.5910630226

> <CNN_VS>
1.9237257242

> <CNNaffinity_variance>
0.1428247541

$$$$
