


 33 36  0  0  0  0  0  0  0  0999 V2000
    8.3633   -1.8601   22.6852 N   0  0  0  0  0  0  0  0  0  0  0  0
    7.9294   -0.6467   21.9175 C   0  0  0  0  0  0  0  0  0  0  0  0
    8.9541    0.2389   21.2727 O   0  0  0  0  0  0  0  0  0  0  0  0
    5.2894   -4.5170   24.6195 C   0  0  0  0  0  0  0  0  0  0  0  0
    5.7001   -3.2372   25.2854 C   0  0  0  0  0  0  0  0  0  0  0  0
    6.7248   -2.3516   24.6406 C   0  0  0  0  0  0  0  0  0  0  0  0
    7.3387   -2.7458   23.3299 C   0  0  0  0  0  0  0  0  0  0  0  0
    6.9279   -4.0256   22.6641 C   0  0  0  0  0  0  0  0  0  0  0  0
    5.9032   -4.9112   23.3089 C   0  0  0  0  0  0  0  0  0  0  0  0
    4.4513   -6.4136   24.1720 C   0  0  0  0  0  0  0  0  0  0  0  0
    4.2647   -5.4027   25.2643 C   0  0  0  0  0  0  0  0  0  0  0  0
    4.0782   -4.3917   26.3565 C   0  0  0  0  0  0  0  0  0  0  0  0
    3.2401   -6.2883   25.9091 C   0  0  0  0  0  0  0  0  0  0  0  0
    2.2154   -7.1739   26.5538 N   0  0  0  0  0  0  0  0  0  0  0  0
    9.8220   -2.1879   22.8080 C   0  0  0  0  0  0  0  0  0  0  0  0
   10.3713   -2.6867   24.1117 C   0  0  0  0  0  0  0  0  0  0  0  0
    9.5578   -3.6175   24.9613 C   0  0  0  0  0  0  0  0  0  0  0  0
   10.1071   -4.1163   26.2649 C   0  0  0  0  0  0  0  0  0  0  0  0
   11.4700   -3.6843   26.7189 C   0  0  0  0  0  0  0  0  0  0  0  0
   12.2835   -2.7536   25.8692 C   0  0  0  0  0  0  0  0  0  0  0  0
   13.6463   -2.3216   26.3232 Cl  0  0  0  0  0  0  0  0  0  0  0  0
   11.7341   -2.2548   24.5656 C   0  0  0  0  0  0  0  0  0  0  0  0
    6.4709   -0.3189   21.7946 C   0  0  0  0  0  0  0  0  0  0  0  0
    5.9121    0.1333   20.4781 C   0  0  0  0  0  0  0  0  0  0  0  0
    6.6061   -0.2385   19.2013 C   0  0  0  0  0  0  0  0  0  0  0  0
    6.0474    0.2137   17.8848 N   0  0  0  0  0  0  0  0  0  0  0  0
    4.7946    1.0377   17.8450 C   0  0  0  0  0  0  0  0  0  0  0  0
    4.1006    1.4096   19.1217 C   0  0  0  0  0  0  0  0  0  0  0  0
    2.8479    2.2336   19.0819 C   0  0  0  0  0  0  0  0  0  0  0  0
    2.1539    2.6054   20.3587 C   0  0  0  0  0  0  0  0  0  0  0  0
    2.7126    2.1532   21.6752 C   0  0  0  0  0  0  0  0  0  0  0  0
    3.9654    1.3292   21.7150 C   0  0  0  0  0  0  0  0  0  0  0  0
    4.6593    0.9574   20.4383 C   0  0  0  0  0  0  0  0  0  0  0  0
 10 11  1  0  0  0
 11 12  1  0  0  0
 11 13  1  0  0  0
 13 14  3  0  0  0
 11  4  1  0  0  0
  4  5  2  0  0  0
  5  6  1  0  0  0
  6  7  2  0  0  0
  7  1  1  0  0  0
  1 15  1  0  0  0
 15 16  1  0  0  0
 16 17  2  0  0  0
 17 18  1  0  0  0
 18 19  2  0  0  0
 19 20  1  0  0  0
 20 21  1  0  0  0
 20 22  2  0  0  0
  1  2  1  0  0  0
  2  3  2  0  0  0
  2 23  1  0  0  0
 23 24  1  0  0  0
 24 25  2  0  0  0
 25 26  1  0  0  0
 26 27  2  0  0  0
 27 28  1  0  0  0
 28 29  2  0  0  0
 29 30  1  0  0  0
 30 31  2  0  0  0
 31 32  1  0  0  0
 32 33  2  0  0  0
  7  8  1  0  0  0
  8  9  2  0  0  0
  9  4  1  0  0  0
 22 16  1  0  0  0
 33 24  1  0  0  0
 33 28  1  0  0  0
M  END
> <minimizedAffinity>
-7.83487

> <CNNscore>
0.7641255856

> <CNNaffinity>
6.8575415611

> <CNN_VS>
5.2400231361

> <CNNaffinity_variance>
0.0363478586

$$$$



 33 36  0  0  0  0  0  0  0  0999 V2000
    9.5295   -0.2936   23.0592 N   0  0  0  0  0  0  0  0  0  0  0  0
    8.9074    0.9304   22.4552 C   0  0  0  0  0  0  0  0  0  0  0  0
    9.7737    2.0755   22.0209 O   0  0  0  0  0  0  0  0  0  0  0  0
    6.9309   -3.7286   24.3621 C   0  0  0  0  0  0  0  0  0  0  0  0
    7.6885   -3.8094   23.0700 C   0  0  0  0  0  0  0  0  0  0  0  0
    8.5547   -2.6644   22.6357 C   0  0  0  0  0  0  0  0  0  0  0  0
    8.6633   -1.4386   23.4935 C   0  0  0  0  0  0  0  0  0  0  0  0
    7.9056   -1.3579   24.7856 C   0  0  0  0  0  0  0  0  0  0  0  0
    7.0394   -2.5029   25.2199 C   0  0  0  0  0  0  0  0  0  0  0  0
    5.1228   -3.9107   25.4564 C   0  0  0  0  0  0  0  0  0  0  0  0
    6.0647   -4.8736   24.7964 C   0  0  0  0  0  0  0  0  0  0  0  0
    7.0066   -5.8365   24.1364 C   0  0  0  0  0  0  0  0  0  0  0  0
    5.1985   -6.0187   25.2308 C   0  0  0  0  0  0  0  0  0  0  0  0
    4.3323   -7.1637   25.6651 N   0  0  0  0  0  0  0  0  0  0  0  0
   11.0178   -0.3726   23.2288 C   0  0  0  0  0  0  0  0  0  0  0  0
   11.6064   -1.2648   24.2813 C   0  0  0  0  0  0  0  0  0  0  0  0
   13.0671   -1.1742   24.6101 C   0  0  0  0  0  0  0  0  0  0  0  0
   13.6557   -2.0664   25.6626 C   0  0  0  0  0  0  0  0  0  0  0  0
   12.7835   -3.0491   26.3862 C   0  0  0  0  0  0  0  0  0  0  0  0
   11.3228   -3.1396   26.0574 C   0  0  0  0  0  0  0  0  0  0  0  0
   10.4506   -4.1222   26.7810 Cl  0  0  0  0  0  0  0  0  0  0  0  0
   10.7342   -2.2474   25.0049 C   0  0  0  0  0  0  0  0  0  0  0  0
    7.4192    1.0095   22.2855 C   0  0  0  0  0  0  0  0  0  0  0  0
    6.8017    0.7399   20.9454 C   0  0  0  0  0  0  0  0  0  0  0  0
    7.4420   -0.2408   20.0082 C   0  0  0  0  0  0  0  0  0  0  0  0
    6.8245   -0.5104   18.6680 N   0  0  0  0  0  0  0  0  0  0  0  0
    5.5668    0.2006   18.2650 C   0  0  0  0  0  0  0  0  0  0  0  0
    4.9264    1.1813   19.2022 C   0  0  0  0  0  0  0  0  0  0  0  0
    3.6687    1.8923   18.7992 C   0  0  0  0  0  0  0  0  0  0  0  0
    3.0284    2.8730   19.7364 C   0  0  0  0  0  0  0  0  0  0  0  0
    3.6458    3.1426   21.0766 C   0  0  0  0  0  0  0  0  0  0  0  0
    4.9036    2.4316   21.4796 C   0  0  0  0  0  0  0  0  0  0  0  0
    5.5439    1.4509   20.5424 C   0  0  0  0  0  0  0  0  0  0  0  0
 10 11  1  0  0  0
 11 12  1  0  0  0
 11 13  1  0  0  0
 13 14  3  0  0  0
 11  4  1  0  0  0
  4  5  2  0  0  0
  5  6  1  0  0  0
  6  7  2  0  0  0
  7  1  1  0  0  0
  1 15  1  0  0  0
 15 16  1  0  0  0
 16 17  2  0  0  0
 17 18  1  0  0  0
 18 19  2  0  0  0
 19 20  1  0  0  0
 20 21  1  0  0  0
 20 22  2  0  0  0
  1  2  1  0  0  0
  2  3  2  0  0  0
  2 23  1  0  0  0
 23 24  1  0  0  0
 24 25  2  0  0  0
 25 26  1  0  0  0
 26 27  2  0  0  0
 27 28  1  0  0  0
 28 29  2  0  0  0
 29 30  1  0  0  0
 30 31  2  0  0  0
 31 32  1  0  0  0
 32 33  2  0  0  0
  7  8  1  0  0  0
  8  9  2  0  0  0
  9  4  1  0  0  0
 22 16  1  0  0  0
 33 24  1  0  0  0
 33 28  1  0  0  0
M  END
> <minimizedAffinity>
-8.29987

> <CNNscore>
0.6934575438

> <CNNaffinity>
7.0519347191

> <CNN_VS>
4.8902173042

> <CNNaffinity_variance>
0.0309191253

$$$$



 33 36  0  0  0  0  0  0  0  0999 V2000
    9.0514   -1.1738   22.6950 N   0  0  0  0  0  0  0  0  0  0  0  0
    7.6091   -1.5237   22.4773 C   0  0  0  0  0  0  0  0  0  0  0  0
    7.1808   -2.9611   22.4567 O   0  0  0  0  0  0  0  0  0  0  0  0
   10.3362    3.1384   22.7571 C   0  0  0  0  0  0  0  0  0  0  0  0
    8.8784    2.7892   22.8131 C   0  0  0  0  0  0  0  0  0  0  0  0
    8.4502    1.3519   22.7924 C   0  0  0  0  0  0  0  0  0  0  0  0
    9.4797    0.2635   22.7157 C   0  0  0  0  0  0  0  0  0  0  0  0
   10.9374    0.6127   22.6597 C   0  0  0  0  0  0  0  0  0  0  0  0
   11.3656    2.0502   22.6804 C   0  0  0  0  0  0  0  0  0  0  0  0
   12.1640    4.1638   22.4296 C   0  0  0  0  0  0  0  0  0  0  0  0
   10.7644    4.5758   22.7778 C   0  0  0  0  0  0  0  0  0  0  0  0
    9.3648    4.9878   23.1259 C   0  0  0  0  0  0  0  0  0  0  0  0
   11.1927    6.0133   22.7985 C   0  0  0  0  0  0  0  0  0  0  0  0
   11.6209    7.4507   22.8192 N   0  0  0  0  0  0  0  0  0  0  0  0
   10.0655   -2.2615   22.8920 C   0  0  0  0  0  0  0  0  0  0  0  0
   10.4251   -2.7096   24.2776 C   0  0  0  0  0  0  0  0  0  0  0  0
    9.3917   -3.3634   25.1463 C   0  0  0  0  0  0  0  0  0  0  0  0
    9.7513   -3.8115   26.5319 C   0  0  0  0  0  0  0  0  0  0  0  0
   11.1444   -3.6058   27.0488 C   0  0  0  0  0  0  0  0  0  0  0  0
   12.1778   -2.9520   26.1800 C   0  0  0  0  0  0  0  0  0  0  0  0
   13.5708   -2.7463   26.6969 Cl  0  0  0  0  0  0  0  0  0  0  0  0
   11.8181   -2.5039   24.7944 C   0  0  0  0  0  0  0  0  0  0  0  0
    6.5950   -0.4361   22.2804 C   0  0  0  0  0  0  0  0  0  0  0  0
    6.1948   -0.0259   20.8942 C   0  0  0  0  0  0  0  0  0  0  0  0
    7.0679   -0.3777   19.7264 C   0  0  0  0  0  0  0  0  0  0  0  0
    6.6676    0.0324   18.3402 N   0  0  0  0  0  0  0  0  0  0  0  0
    5.3942    0.7944   18.1218 C   0  0  0  0  0  0  0  0  0  0  0  0
    4.5210    1.1462   19.2896 C   0  0  0  0  0  0  0  0  0  0  0  0
    3.2475    1.9082   19.0712 C   0  0  0  0  0  0  0  0  0  0  0  0
    2.3744    2.2600   20.2390 C   0  0  0  0  0  0  0  0  0  0  0  0
    2.7747    1.8498   21.6252 C   0  0  0  0  0  0  0  0  0  0  0  0
    4.0481    1.0879   21.8436 C   0  0  0  0  0  0  0  0  0  0  0  0
    4.9212    0.7361   20.6758 C   0  0  0  0  0  0  0  0  0  0  0  0
 10 11  1  0  0  0
 11 12  1  0  0  0
 11 13  1  0  0  0
 13 14  3  0  0  0
 11  4  1  0  0  0
  4  5  2  0  0  0
  5  6  1  0  0  0
  6  7  2  0  0  0
  7  1  1  0  0  0
  1 15  1  0  0  0
 15 16  1  0  0  0
 16 17  2  0  0  0
 17 18  1  0  0  0
 18 19  2  0  0  0
 19 20  1  0  0  0
 20 21  1  0  0  0
 20 22  2  0  0  0
  1  2  1  0  0  0
  2  3  2  0  0  0
  2 23  1  0  0  0
 23 24  1  0  0  0
 24 25  2  0  0  0
 25 26  1  0  0  0
 26 27  2  0  0  0
 27 28  1  0  0  0
 28 29  2  0  0  0
 29 30  1  0  0  0
 30 31  2  0  0  0
 31 32  1  0  0  0
 32 33  2  0  0  0
  7  8  1  0  0  0
  8  9  2  0  0  0
  9  4  1  0  0  0
 22 16  1  0  0  0
 33 24  1  0  0  0
 33 28  1  0  0  0
M  END
> <minimizedAffinity>
-8.28735

> <CNNscore>
0.6857777238

> <CNNaffinity>
7.0537376404

> <CNN_VS>
4.8372960091

> <CNNaffinity_variance>
0.0464260243

$$$$



 33 36  0  0  0  0  0  0  0  0999 V2000
    8.4410    0.1525   23.4270 N   0  0  0  0  0  0  0  0  0  0  0  0
    7.8119    0.5597   22.1277 C   0  0  0  0  0  0  0  0  0  0  0  0
    8.5313    1.5021   21.2088 O   0  0  0  0  0  0  0  0  0  0  0  0
    6.2828   -2.6748   26.1835 C   0  0  0  0  0  0  0  0  0  0  0  0
    7.0479   -3.2098   25.0095 C   0  0  0  0  0  0  0  0  0  0  0  0
    7.7673   -2.2674   24.0906 C   0  0  0  0  0  0  0  0  0  0  0  0
    7.7216   -0.7899   24.3459 C   0  0  0  0  0  0  0  0  0  0  0  0
    6.9566   -0.2549   25.5200 C   0  0  0  0  0  0  0  0  0  0  0  0
    6.2372   -1.1974   26.4388 C   0  0  0  0  0  0  0  0  0  0  0  0
    4.7991   -4.1706   25.9364 C   0  0  0  0  0  0  0  0  0  0  0  0
    5.5634   -3.6172   27.1024 C   0  0  0  0  0  0  0  0  0  0  0  0
    6.3278   -3.0639   28.2684 C   0  0  0  0  0  0  0  0  0  0  0  0
    4.8440   -4.5596   28.0213 C   0  0  0  0  0  0  0  0  0  0  0  0
    4.1247   -5.5021   28.9402 N   0  0  0  0  0  0  0  0  0  0  0  0
    9.7897    0.6878   23.8075 C   0  0  0  0  0  0  0  0  0  0  0  0
   10.9800   -0.2247   23.8288 C   0  0  0  0  0  0  0  0  0  0  0  0
   11.7807   -0.4422   22.5791 C   0  0  0  0  0  0  0  0  0  0  0  0
   12.9710   -1.3547   22.6003 C   0  0  0  0  0  0  0  0  0  0  0  0
   13.3607   -2.0497   23.8713 C   0  0  0  0  0  0  0  0  0  0  0  0
   12.5601   -1.8321   25.1209 C   0  0  0  0  0  0  0  0  0  0  0  0
   12.9498   -2.5270   26.3918 Cl  0  0  0  0  0  0  0  0  0  0  0  0
   11.3697   -0.9196   25.0997 C   0  0  0  0  0  0  0  0  0  0  0  0
    6.4633    0.0245   21.7471 C   0  0  0  0  0  0  0  0  0  0  0  0
    5.8770    0.3532   20.4062 C   0  0  0  0  0  0  0  0  0  0  0  0
    6.5106   -0.1858   19.1580 C   0  0  0  0  0  0  0  0  0  0  0  0
    5.9243    0.1429   17.8171 N   0  0  0  0  0  0  0  0  0  0  0  0
    4.7044    1.0107   17.7243 C   0  0  0  0  0  0  0  0  0  0  0  0
    4.0707    1.5498   18.9724 C   0  0  0  0  0  0  0  0  0  0  0  0
    2.8508    2.4176   18.8796 C   0  0  0  0  0  0  0  0  0  0  0  0
    2.2171    2.9566   20.1278 C   0  0  0  0  0  0  0  0  0  0  0  0
    2.8034    2.6279   21.4687 C   0  0  0  0  0  0  0  0  0  0  0  0
    4.0234    1.7601   21.5615 C   0  0  0  0  0  0  0  0  0  0  0  0
    4.6570    1.2210   20.3134 C   0  0  0  0  0  0  0  0  0  0  0  0
 10 11  1  0  0  0
 11 12  1  0  0  0
 11 13  1  0  0  0
 13 14  3  0  0  0
 11  4  1  0  0  0
  4  5  2  0  0  0
  5  6  1  0  0  0
  6  7  2  0  0  0
  7  1  1  0  0  0
  1 15  1  0  0  0
 15 16  1  0  0  0
 16 17  2  0  0  0
 17 18  1  0  0  0
 18 19  2  0  0  0
 19 20  1  0  0  0
 20 21  1  0  0  0
 20 22  2  0  0  0
  1  2  1  0  0  0
  2  3  2  0  0  0
  2 23  1  0  0  0
 23 24  1  0  0  0
 24 25  2  0  0  0
 25 26  1  0  0  0
 26 27  2  0  0  0
 27 28  1  0  0  0
 28 29  2  0  0  0
 29 30  1  0  0  0
 30 31  2  0  0  0
 31 32  1  0  0  0
 32 33  2  0  0  0
  7  8  1  0  0  0
  8  9  2  0  0  0
  9  4  1  0  0  0
 22 16  1  0  0  0
 33 24  1  0  0  0
 33 28  1  0  0  0
M  END
> <minimizedAffinity>
-7.76117

> <CNNscore>
0.6572420001

> <CNNaffinity>
6.7447271347

> <CNN_VS>
4.4329180717

> <CNNaffinity_variance>
0.0202120524

$$$$



 33 36  0  0  0  0  0  0  0  0999 V2000
    7.9045   -0.4681   23.5469 N   0  0  0  0  0  0  0  0  0  0  0  0
    7.4712    0.0533   22.2088 C   0  0  0  0  0  0  0  0  0  0  0  0
    8.2308    1.1709   21.5576 O   0  0  0  0  0  0  0  0  0  0  0  0
    5.6259   -3.8209   25.5006 C   0  0  0  0  0  0  0  0  0  0  0  0
    6.8630   -4.1180   24.7060 C   0  0  0  0  0  0  0  0  0  0  0  0
    7.6225   -3.0004   24.0548 C   0  0  0  0  0  0  0  0  0  0  0  0
    7.1449   -1.5857   24.1981 C   0  0  0  0  0  0  0  0  0  0  0  0
    5.9079   -1.2886   24.9927 C   0  0  0  0  0  0  0  0  0  0  0  0
    5.1483   -2.4062   25.6439 C   0  0  0  0  0  0  0  0  0  0  0  0
    4.7994   -5.6586   24.8377 C   0  0  0  0  0  0  0  0  0  0  0  0
    4.8664   -4.9384   26.1518 C   0  0  0  0  0  0  0  0  0  0  0  0
    4.9333   -4.2182   27.4658 C   0  0  0  0  0  0  0  0  0  0  0  0
    4.1068   -6.0560   26.8031 C   0  0  0  0  0  0  0  0  0  0  0  0
    3.3472   -7.1736   27.4543 N   0  0  0  0  0  0  0  0  0  0  0  0
    9.0974    0.1281   24.2337 C   0  0  0  0  0  0  0  0  0  0  0  0
   10.4388   -0.5326   24.1154 C   0  0  0  0  0  0  0  0  0  0  0  0
   11.1130   -1.0850   25.3363 C   0  0  0  0  0  0  0  0  0  0  0  0
   12.4545   -1.7458   25.2180 C   0  0  0  0  0  0  0  0  0  0  0  0
   13.1217   -1.8541   23.8789 C   0  0  0  0  0  0  0  0  0  0  0  0
   12.4474   -1.3017   22.6581 C   0  0  0  0  0  0  0  0  0  0  0  0
   13.1146   -1.4101   21.3191 Cl  0  0  0  0  0  0  0  0  0  0  0  0
   11.1060   -0.6410   22.7764 C   0  0  0  0  0  0  0  0  0  0  0  0
    6.2784   -0.5428   21.5220 C   0  0  0  0  0  0  0  0  0  0  0  0
    5.7844    0.0438   20.2329 C   0  0  0  0  0  0  0  0  0  0  0  0
    6.5237   -0.2232   18.9554 C   0  0  0  0  0  0  0  0  0  0  0  0
    6.0296    0.3634   17.6662 N   0  0  0  0  0  0  0  0  0  0  0  0
    4.7963    1.2170   17.6546 C   0  0  0  0  0  0  0  0  0  0  0  0
    4.0569    1.4841   18.9322 C   0  0  0  0  0  0  0  0  0  0  0  0
    2.8236    2.3377   18.9206 C   0  0  0  0  0  0  0  0  0  0  0  0
    2.0843    2.6047   20.1981 C   0  0  0  0  0  0  0  0  0  0  0  0
    2.5783    2.0181   21.4872 C   0  0  0  0  0  0  0  0  0  0  0  0
    3.8117    1.1645   21.4988 C   0  0  0  0  0  0  0  0  0  0  0  0
    4.5510    0.8974   20.2213 C   0  0  0  0  0  0  0  0  0  0  0  0
 10 11  1  0  0  0
 11 12  1  0  0  0
 11 13  1  0  0  0
 13 14  3  0  0  0
 11  4  1  0  0  0
  4  5  2  0  0  0
  5  6  1  0  0  0
  6  7  2  0  0  0
  7  1  1  0  0  0
  1 15  1  0  0  0
 15 16  1  0  0  0
 16 17  2  0  0  0
 17 18  1  0  0  0
 18 19  2  0  0  0
 19 20  1  0  0  0
 20 21  1  0  0  0
 20 22  2  0  0  0
  1  2  1  0  0  0
  2  3  2  0  0  0
  2 23  1  0  0  0
 23 24  1  0  0  0
 24 25  2  0  0  0
 25 26  1  0  0  0
 26 27  2  0  0  0
 27 28  1  0  0  0
 28 29  2  0  0  0
 29 30  1  0  0  0
 30 31  2  0  0  0
 31 32  1  0  0  0
 32 33  2  0  0  0
  7  8  1  0  0  0
  8  9  2  0  0  0
  9  4  1  0  0  0
 22 16  1  0  0  0
 33 24  1  0  0  0
 33 28  1  0  0  0
M  END
> <minimizedAffinity>
-7.57973

> <CNNscore>
0.6305409670

> <CNNaffinity>
6.7707242966

> <CNN_VS>
4.2692189217

> <CNNaffinity_variance>
0.0259674825

$$$$



 33 36  0  0  0  0  0  0  0  0999 V2000
    9.2759   -0.0748   23.0549 N   0  0  0  0  0  0  0  0  0  0  0  0
    8.6002    1.1015   22.4146 C   0  0  0  0  0  0  0  0  0  0  0  0
    9.4110    2.2847   21.9756 O   0  0  0  0  0  0  0  0  0  0  0  0
    6.8437   -3.6244   24.3718 C   0  0  0  0  0  0  0  0  0  0  0  0
    6.8385   -2.3667   25.1893 C   0  0  0  0  0  0  0  0  0  0  0  0
    7.6492   -1.1835   24.7503 C   0  0  0  0  0  0  0  0  0  0  0  0
    8.4652   -1.2580   23.4938 C   0  0  0  0  0  0  0  0  0  0  0  0
    8.4704   -2.5156   22.6764 C   0  0  0  0  0  0  0  0  0  0  0  0
    7.6596   -3.6989   23.1154 C   0  0  0  0  0  0  0  0  0  0  0  0
    7.0576   -5.7293   24.2188 C   0  0  0  0  0  0  0  0  0  0  0  0
    6.0330   -4.8076   24.8108 C   0  0  0  0  0  0  0  0  0  0  0  0
    5.0084   -3.8859   25.4029 C   0  0  0  0  0  0  0  0  0  0  0  0
    5.2222   -5.9908   25.2498 C   0  0  0  0  0  0  0  0  0  0  0  0
    4.4114   -7.1740   25.6889 N   0  0  0  0  0  0  0  0  0  0  0  0
   10.7623   -0.0677   23.2562 C   0  0  0  0  0  0  0  0  0  0  0  0
   11.3860   -0.9792   24.2712 C   0  0  0  0  0  0  0  0  0  0  0  0
   12.8764   -1.0066   24.4391 C   0  0  0  0  0  0  0  0  0  0  0  0
   13.5000   -1.9181   25.4542 C   0  0  0  0  0  0  0  0  0  0  0  0
   12.6334   -2.8021   26.3012 C   0  0  0  0  0  0  0  0  0  0  0  0
   11.1431   -2.7746   26.1333 C   0  0  0  0  0  0  0  0  0  0  0  0
   10.2765   -3.6586   26.9803 Cl  0  0  0  0  0  0  0  0  0  0  0  0
   10.5194   -1.8632   25.1182 C   0  0  0  0  0  0  0  0  0  0  0  0
    7.1138    1.0945   22.2132 C   0  0  0  0  0  0  0  0  0  0  0  0
    6.5424    0.8221   20.8533 C   0  0  0  0  0  0  0  0  0  0  0  0
    7.2113   -0.1643   19.9426 C   0  0  0  0  0  0  0  0  0  0  0  0
    6.6399   -0.4367   18.5827 N   0  0  0  0  0  0  0  0  0  0  0  0
    5.3996    0.2773   18.1335 C   0  0  0  0  0  0  0  0  0  0  0  0
    4.7307    1.2638   19.0443 C   0  0  0  0  0  0  0  0  0  0  0  0
    3.4904    1.9779   18.5952 C   0  0  0  0  0  0  0  0  0  0  0  0
    2.8215    2.9643   19.5059 C   0  0  0  0  0  0  0  0  0  0  0  0
    3.3929    3.2367   20.8658 C   0  0  0  0  0  0  0  0  0  0  0  0
    4.6332    2.5226   21.3150 C   0  0  0  0  0  0  0  0  0  0  0  0
    5.3021    1.5362   20.4042 C   0  0  0  0  0  0  0  0  0  0  0  0
 10 11  1  0  0  0
 11 12  1  0  0  0
 11 13  1  0  0  0
 13 14  3  0  0  0
 11  4  1  0  0  0
  4  5  2  0  0  0
  5  6  1  0  0  0
  6  7  2  0  0  0
  7  1  1  0  0  0
  1 15  1  0  0  0
 15 16  1  0  0  0
 16 17  2  0  0  0
 17 18  1  0  0  0
 18 19  2  0  0  0
 19 20  1  0  0  0
 20 21  1  0  0  0
 20 22  2  0  0  0
  1  2  1  0  0  0
  2  3  2  0  0  0
  2 23  1  0  0  0
 23 24  1  0  0  0
 24 25  2  0  0  0
 25 26  1  0  0  0
 26 27  2  0  0  0
 27 28  1  0  0  0
 28 29  2  0  0  0
 29 30  1  0  0  0
 30 31  2  0  0  0
 31 32  1  0  0  0
 32 33  2  0  0  0
  7  8  1  0  0  0
  8  9  2  0  0  0
  9  4  1  0  0  0
 22 16  1  0  0  0
 33 24  1  0  0  0
 33 28  1  0  0  0
M  END
> <minimizedAffinity>
-8.27237

> <CNNscore>
0.5980521441

> <CNNaffinity>
6.9111471176

> <CNN_VS>
4.1332263947

> <CNNaffinity_variance>
0.0256039705

$$$$



 33 36  0  0  0  0  0  0  0  0999 V2000
    8.8844   -0.4147   23.6442 N   0  0  0  0  0  0  0  0  0  0  0  0
    8.2858   -1.2176   22.5275 C   0  0  0  0  0  0  0  0  0  0  0  0
    7.6178   -2.5283   22.8205 O   0  0  0  0  0  0  0  0  0  0  0  0
   10.8882    3.5175   22.7654 C   0  0  0  0  0  0  0  0  0  0  0  0
    9.3946    3.4468   22.8841 C   0  0  0  0  0  0  0  0  0  0  0  0
    8.7267    2.1361   23.1770 C   0  0  0  0  0  0  0  0  0  0  0  0
    9.5524    0.8960   23.3513 C   0  0  0  0  0  0  0  0  0  0  0  0
   11.0460    0.9666   23.2326 C   0  0  0  0  0  0  0  0  0  0  0  0
   11.7139    2.2774   22.9396 C   0  0  0  0  0  0  0  0  0  0  0  0
   12.7122    4.1006   21.8527 C   0  0  0  0  0  0  0  0  0  0  0  0
   11.5562    4.8282   22.4724 C   0  0  0  0  0  0  0  0  0  0  0  0
   10.4001    5.5558   23.0921 C   0  0  0  0  0  0  0  0  0  0  0  0
   12.2241    6.1390   22.1795 C   0  0  0  0  0  0  0  0  0  0  0  0
   12.8920    7.4497   21.8866 N   0  0  0  0  0  0  0  0  0  0  0  0
    8.8151   -0.9227   25.0540 C   0  0  0  0  0  0  0  0  0  0  0  0
    9.8353   -1.9050   25.5482 C   0  0  0  0  0  0  0  0  0  0  0  0
    9.3960   -3.2290   26.0997 C   0  0  0  0  0  0  0  0  0  0  0  0
   10.4162   -4.2113   26.5939 C   0  0  0  0  0  0  0  0  0  0  0  0
   11.8757   -3.8697   26.5367 C   0  0  0  0  0  0  0  0  0  0  0  0
   12.3149   -2.5457   25.9852 C   0  0  0  0  0  0  0  0  0  0  0  0
   13.7744   -2.2041   25.9279 Cl  0  0  0  0  0  0  0  0  0  0  0  0
   11.2948   -1.5634   25.4910 C   0  0  0  0  0  0  0  0  0  0  0  0
    8.3550   -0.7097   21.1179 C   0  0  0  0  0  0  0  0  0  0  0  0
    7.1029   -0.2778   20.4139 C   0  0  0  0  0  0  0  0  0  0  0  0
    6.9998   -0.4026   18.9227 C   0  0  0  0  0  0  0  0  0  0  0  0
    5.7476    0.0293   18.2187 N   0  0  0  0  0  0  0  0  0  0  0  0
    4.5986    0.5860   19.0059 C   0  0  0  0  0  0  0  0  0  0  0  0
    4.7017    0.7108   20.4972 C   0  0  0  0  0  0  0  0  0  0  0  0
    3.5526    1.2675   21.2844 C   0  0  0  0  0  0  0  0  0  0  0  0
    3.6557    1.3923   22.7756 C   0  0  0  0  0  0  0  0  0  0  0  0
    4.9079    0.9604   23.4796 C   0  0  0  0  0  0  0  0  0  0  0  0
    6.0569    0.4037   22.6924 C   0  0  0  0  0  0  0  0  0  0  0  0
    5.9538    0.2789   21.2012 C   0  0  0  0  0  0  0  0  0  0  0  0
 10 11  1  0  0  0
 11 12  1  0  0  0
 11 13  1  0  0  0
 13 14  3  0  0  0
 11  4  1  0  0  0
  4  5  2  0  0  0
  5  6  1  0  0  0
  6  7  2  0  0  0
  7  1  1  0  0  0
  1 15  1  0  0  0
 15 16  1  0  0  0
 16 17  2  0  0  0
 17 18  1  0  0  0
 18 19  2  0  0  0
 19 20  1  0  0  0
 20 21  1  0  0  0
 20 22  2  0  0  0
  1  2  1  0  0  0
  2  3  2  0  0  0
  2 23  1  0  0  0
 23 24  1  0  0  0
 24 25  2  0  0  0
 25 26  1  0  0  0
 26 27  2  0  0  0
 27 28  1  0  0  0
 28 29  2  0  0  0
 29 30  1  0  0  0
 30 31  2  0  0  0
 31 32  1  0  0  0
 32 33  2  0  0  0
  7  8  1  0  0  0
  8  9  2  0  0  0
  9  4  1  0  0  0
 22 16  1  0  0  0
 33 24  1  0  0  0
 33 28  1  0  0  0
M  END
> <minimizedAffinity>
-8.49587

> <CNNscore>
0.5401327610

> <CNNaffinity>
6.8173689842

> <CNN_VS>
3.6822843552

> <CNNaffinity_variance>
0.2434318066

$$$$



 33 36  0  0  0  0  0  0  0  0999 V2000
    7.8539   -1.6215   23.3043 N   0  0  0  0  0  0  0  0  0  0  0  0
    7.6121   -0.8624   22.0333 C   0  0  0  0  0  0  0  0  0  0  0  0
    8.4905   -1.0982   20.8404 O   0  0  0  0  0  0  0  0  0  0  0  0
    5.2191   -0.9144   26.8831 C   0  0  0  0  0  0  0  0  0  0  0  0
    4.8319   -1.9380   25.8572 C   0  0  0  0  0  0  0  0  0  0  0  0
    5.7101   -2.1736   24.6643 C   0  0  0  0  0  0  0  0  0  0  0  0
    6.9756   -1.3858   24.4972 C   0  0  0  0  0  0  0  0  0  0  0  0
    7.3628   -0.3623   25.5231 C   0  0  0  0  0  0  0  0  0  0  0  0
    6.4845   -0.1266   26.7161 C   0  0  0  0  0  0  0  0  0  0  0  0
    4.5282   -2.1065   28.4960 C   0  0  0  0  0  0  0  0  0  0  0  0
    4.3408   -0.6788   28.0760 C   0  0  0  0  0  0  0  0  0  0  0  0
    4.1535    0.7490   27.6560 C   0  0  0  0  0  0  0  0  0  0  0  0
    3.4625   -0.4430   29.2690 C   0  0  0  0  0  0  0  0  0  0  0  0
    2.5843   -0.2073   30.4619 N   0  0  0  0  0  0  0  0  0  0  0  0
    8.9739   -2.6162   23.3823 C   0  0  0  0  0  0  0  0  0  0  0  0
   10.3369   -2.1775   23.8295 C   0  0  0  0  0  0  0  0  0  0  0  0
   10.9156   -2.7121   25.1059 C   0  0  0  0  0  0  0  0  0  0  0  0
   12.2786   -2.2733   25.5531 C   0  0  0  0  0  0  0  0  0  0  0  0
   13.0627   -1.3000   24.7237 C   0  0  0  0  0  0  0  0  0  0  0  0
   12.4840   -0.7654   23.4473 C   0  0  0  0  0  0  0  0  0  0  0  0
   13.2681    0.2079   22.6181 Cl  0  0  0  0  0  0  0  0  0  0  0  0
   11.1210   -1.2042   23.0002 C   0  0  0  0  0  0  0  0  0  0  0  0
    6.4922    0.1323   21.9552 C   0  0  0  0  0  0  0  0  0  0  0  0
    5.8779    0.4675   20.6285 C   0  0  0  0  0  0  0  0  0  0  0  0
    6.5793    0.0846   19.3591 C   0  0  0  0  0  0  0  0  0  0  0  0
    5.9650    0.4199   18.0323 N   0  0  0  0  0  0  0  0  0  0  0  0
    4.6494    1.1379   17.9749 C   0  0  0  0  0  0  0  0  0  0  0  0
    3.9479    1.5208   19.2444 C   0  0  0  0  0  0  0  0  0  0  0  0
    2.6322    2.2389   19.1870 C   0  0  0  0  0  0  0  0  0  0  0  0
    1.9308    2.6217   20.4564 C   0  0  0  0  0  0  0  0  0  0  0  0
    2.5451    2.2865   21.7831 C   0  0  0  0  0  0  0  0  0  0  0  0
    3.8607    1.5684   21.8405 C   0  0  0  0  0  0  0  0  0  0  0  0
    4.5621    1.1856   20.5711 C   0  0  0  0  0  0  0  0  0  0  0  0
 10 11  1  0  0  0
 11 12  1  0  0  0
 11 13  1  0  0  0
 13 14  3  0  0  0
 11  4  1  0  0  0
  4  5  2  0  0  0
  5  6  1  0  0  0
  6  7  2  0  0  0
  7  1  1  0  0  0
  1 15  1  0  0  0
 15 16  1  0  0  0
 16 17  2  0  0  0
 17 18  1  0  0  0
 18 19  2  0  0  0
 19 20  1  0  0  0
 20 21  1  0  0  0
 20 22  2  0  0  0
  1  2  1  0  0  0
  2  3  2  0  0  0
  2 23  1  0  0  0
 23 24  1  0  0  0
 24 25  2  0  0  0
 25 26  1  0  0  0
 26 27  2  0  0  0
 27 28  1  0  0  0
 28 29  2  0  0  0
 29 30  1  0  0  0
 30 31  2  0  0  0
 31 32  1  0  0  0
 32 33  2  0  0  0
  7  8  1  0  0  0
  8  9  2  0  0  0
  9  4  1  0  0  0
 22 16  1  0  0  0
 33 24  1  0  0  0
 33 28  1  0  0  0
M  END
> <minimizedAffinity>
-6.97509

> <CNNscore>
0.5011627078

> <CNNaffinity>
6.5018453598

> <CNN_VS>
3.2584824562

> <CNNaffinity_variance>
0.0417195335

$$$$



 33 36  0  0  0  0  0  0  0  0999 V2000
    6.7323   -1.8758   25.2432 N   0  0  0  0  0  0  0  0  0  0  0  0
    7.7971   -2.9045   25.4834 C   0  0  0  0  0  0  0  0  0  0  0  0
    8.0572   -3.4043   26.8736 O   0  0  0  0  0  0  0  0  0  0  0  0
    5.9521   -0.3763   21.0727 C   0  0  0  0  0  0  0  0  0  0  0  0
    6.6430    0.5059   22.0699 C   0  0  0  0  0  0  0  0  0  0  0  0
    6.9030    0.0061   23.4600 C   0  0  0  0  0  0  0  0  0  0  0  0
    6.4722   -1.3760   23.8530 C   0  0  0  0  0  0  0  0  0  0  0  0
    5.7814   -2.2582   22.8558 C   0  0  0  0  0  0  0  0  0  0  0  0
    5.5213   -1.7583   21.4656 C   0  0  0  0  0  0  0  0  0  0  0  0
    6.9923   -0.4691   19.2263 C   0  0  0  0  0  0  0  0  0  0  0  0
    5.6921    0.1235   19.6825 C   0  0  0  0  0  0  0  0  0  0  0  0
    4.3919    0.7160   20.1388 C   0  0  0  0  0  0  0  0  0  0  0  0
    5.4320    0.6233   18.2923 C   0  0  0  0  0  0  0  0  0  0  0  0
    5.1719    1.1231   16.9022 N   0  0  0  0  0  0  0  0  0  0  0  0
    5.9274   -1.3468   26.3932 C   0  0  0  0  0  0  0  0  0  0  0  0
    5.1795   -2.2942   27.2838 C   0  0  0  0  0  0  0  0  0  0  0  0
    5.3993   -2.2606   28.7673 C   0  0  0  0  0  0  0  0  0  0  0  0
    4.6514   -3.2080   29.6578 C   0  0  0  0  0  0  0  0  0  0  0  0
    3.6837   -4.1889   29.0649 C   0  0  0  0  0  0  0  0  0  0  0  0
    3.4639   -4.2224   27.5815 C   0  0  0  0  0  0  0  0  0  0  0  0
    2.4962   -5.2032   26.9887 Cl  0  0  0  0  0  0  0  0  0  0  0  0
    4.2118   -3.2750   26.6909 C   0  0  0  0  0  0  0  0  0  0  0  0
    8.6020   -3.4335   24.3334 C   0  0  0  0  0  0  0  0  0  0  0  0
    9.7822   -2.6597   23.8252 C   0  0  0  0  0  0  0  0  0  0  0  0
    9.6871   -1.9127   22.5280 C   0  0  0  0  0  0  0  0  0  0  0  0
   10.8673   -1.1390   22.0198 N   0  0  0  0  0  0  0  0  0  0  0  0
   12.1427   -1.1122   22.8088 C   0  0  0  0  0  0  0  0  0  0  0  0
   12.2379   -1.8592   24.1061 C   0  0  0  0  0  0  0  0  0  0  0  0
   13.5133   -1.8325   24.8951 C   0  0  0  0  0  0  0  0  0  0  0  0
   13.6084   -2.5795   26.1924 C   0  0  0  0  0  0  0  0  0  0  0  0
   12.4282   -3.3533   26.7006 C   0  0  0  0  0  0  0  0  0  0  0  0
   11.1528   -3.3800   25.9116 C   0  0  0  0  0  0  0  0  0  0  0  0
   11.0577   -2.6330   24.6143 C   0  0  0  0  0  0  0  0  0  0  0  0
 10 11  1  0  0  0
 11 12  1  0  0  0
 11 13  1  0  0  0
 13 14  3  0  0  0
 11  4  1  0  0  0
  4  5  2  0  0  0
  5  6  1  0  0  0
  6  7  2  0  0  0
  7  1  1  0  0  0
  1 15  1  0  0  0
 15 16  1  0  0  0
 16 17  2  0  0  0
 17 18  1  0  0  0
 18 19  2  0  0  0
 19 20  1  0  0  0
 20 21  1  0  0  0
 20 22  2  0  0  0
  1  2  1  0  0  0
  2  3  2  0  0  0
  2 23  1  0  0  0
 23 24  1  0  0  0
 24 25  2  0  0  0
 25 26  1  0  0  0
 26 27  2  0  0  0
 27 28  1  0  0  0
 28 29  2  0  0  0
 29 30  1  0  0  0
 30 31  2  0  0  0
 31 32  1  0  0  0
 32 33  2  0  0  0
  7  8  1  0  0  0
  8  9  2  0  0  0
  9  4  1  0  0  0
 22 16  1  0  0  0
 33 24  1  0  0  0
 33 28  1  0  0  0
M  END
> <minimizedAffinity>
-7.38297

> <CNNscore>
0.4794227183

> <CNNaffinity>
6.5741653442

> <CNN_VS>
3.1518042088

> <CNNaffinity_variance>
0.2852098942

$$$$
