


 33 36  0  0  0  0  0  0  0  0999 V2000
   -7.5560   -1.5699  -22.2480 N   0  0  0  0  0  0  0  0  0  0  0  0
   -8.1975   -0.2266  -22.4328 C   0  0  0  0  0  0  0  0  0  0  0  0
   -8.1364    0.7914  -21.3327 O   0  0  0  0  0  0  0  0  0  0  0  0
   -7.7393   -4.6240  -25.5478 C   0  0  0  0  0  0  0  0  0  0  0  0
   -7.6621   -5.0690  -24.1174 C   0  0  0  0  0  0  0  0  0  0  0  0
   -7.6011   -4.0510  -23.0175 C   0  0  0  0  0  0  0  0  0  0  0  0
   -7.6171   -2.5879  -23.3479 C   0  0  0  0  0  0  0  0  0  0  0  0
   -7.6942   -2.1428  -24.7783 C   0  0  0  0  0  0  0  0  0  0  0  0
   -7.7553   -3.1609  -25.8783 C   0  0  0  0  0  0  0  0  0  0  0  0
   -6.9974   -6.5937  -25.8114 C   0  0  0  0  0  0  0  0  0  0  0  0
   -7.8003   -5.6420  -26.6477 C   0  0  0  0  0  0  0  0  0  0  0  0
   -8.6032   -4.6902  -27.4840 C   0  0  0  0  0  0  0  0  0  0  0  0
   -7.8614   -6.6600  -27.7478 C   0  0  0  0  0  0  0  0  0  0  0  0
   -7.9226   -7.6780  -28.8477 N   0  0  0  0  0  0  0  0  0  0  0  0
   -6.8534   -1.8951  -20.9632 C   0  0  0  0  0  0  0  0  0  0  0  0
   -5.8440   -0.9404  -20.3978 C   0  0  0  0  0  0  0  0  0  0  0  0
   -5.8658   -0.6046  -18.9360 C   0  0  0  0  0  0  0  0  0  0  0  0
   -4.8564    0.3501  -18.3707 C   0  0  0  0  0  0  0  0  0  0  0  0
   -3.8252    0.9691  -19.2672 C   0  0  0  0  0  0  0  0  0  0  0  0
   -3.8036    0.6334  -20.7290 C   0  0  0  0  0  0  0  0  0  0  0  0
   -2.7725    1.2524  -21.6254 Cl  0  0  0  0  0  0  0  0  0  0  0  0
   -4.8130   -0.3214  -21.2943 C   0  0  0  0  0  0  0  0  0  0  0  0
   -8.9001    0.0987  -23.7175 C   0  0  0  0  0  0  0  0  0  0  0  0
  -10.3081    0.6152  -23.6924 C   0  0  0  0  0  0  0  0  0  0  0  0
  -10.5859    2.0519  -24.0218 C   0  0  0  0  0  0  0  0  0  0  0  0
  -11.9940    2.5684  -23.9967 N   0  0  0  0  0  0  0  0  0  0  0  0
  -13.1242    1.6482  -23.6422 C   0  0  0  0  0  0  0  0  0  0  0  0
  -12.8464    0.2114  -23.3128 C   0  0  0  0  0  0  0  0  0  0  0  0
  -13.9767   -0.7089  -22.9584 C   0  0  0  0  0  0  0  0  0  0  0  0
  -13.6988   -2.1456  -22.6290 C   0  0  0  0  0  0  0  0  0  0  0  0
  -12.2908   -2.6621  -22.6541 C   0  0  0  0  0  0  0  0  0  0  0  0
  -11.1606   -1.7419  -23.0085 C   0  0  0  0  0  0  0  0  0  0  0  0
  -11.4384   -0.3051  -23.3379 C   0  0  0  0  0  0  0  0  0  0  0  0
 10 11  1  0  0  0
 11 12  1  0  0  0
 11 13  1  0  0  0
 13 14  3  0  0  0
 11  4  1  0  0  0
  4  5  2  0  0  0
  5  6  1  0  0  0
  6  7  2  0  0  0
  7  1  1  0  0  0
  1 15  1  0  0  0
 15 16  1  0  0  0
 16 17  2  0  0  0
 17 18  1  0  0  0
 18 19  2  0  0  0
 19 20  1  0  0  0
 20 21  1  0  0  0
 20 22  2  0  0  0
  1  2  1  0  0  0
  2  3  2  0  0  0
  2 23  1  0  0  0
 23 24  1  0  0  0
 24 25  2  0  0  0
 25 26  1  0  0  0
 26 27  2  0  0  0
 27 28  1  0  0  0
 28 29  2  0  0  0
 29 30  1  0  0  0
 30 31  2  0  0  0
 31 32  1  0  0  0
 32 33  2  0  0  0
  7  8  1  0  0  0
  8  9  2  0  0  0
  9  4  1  0  0  0
 22 16  1  0  0  0
 33 24  1  0  0  0
 33 28  1  0  0  0
M  END
> <minimizedAffinity>
-7.93476

> <CNNscore>
0.5043824911

> <CNNaffinity>
6.4772720337

> <CNN_VS>
3.2670226097

> <CNNaffinity_variance>
0.0509008653

$$$$



 33 36  0  0  0  0  0  0  0  0999 V2000
  -10.0717   -0.8353  -22.8487 N   0  0  0  0  0  0  0  0  0  0  0  0
  -10.9845    0.0848  -23.6038 C   0  0  0  0  0  0  0  0  0  0  0  0
  -12.2777   -0.4326  -24.1608 O   0  0  0  0  0  0  0  0  0  0  0  0
   -6.1924    0.7168  -21.1776 C   0  0  0  0  0  0  0  0  0  0  0  0
   -6.7054   -0.6285  -20.7569 C   0  0  0  0  0  0  0  0  0  0  0  0
   -7.9985   -1.1459  -21.3139 C   0  0  0  0  0  0  0  0  0  0  0  0
   -8.7786   -0.3179  -22.2917 C   0  0  0  0  0  0  0  0  0  0  0  0
   -8.2656    1.0274  -22.7124 C   0  0  0  0  0  0  0  0  0  0  0  0
   -6.9724    1.5447  -22.1553 C   0  0  0  0  0  0  0  0  0  0  0  0
   -4.7338    2.1151  -21.8232 C   0  0  0  0  0  0  0  0  0  0  0  0
   -4.8994    1.2341  -20.6206 C   0  0  0  0  0  0  0  0  0  0  0  0
   -5.0650    0.3531  -19.4179 C   0  0  0  0  0  0  0  0  0  0  0  0
   -3.6062    1.7514  -20.0635 C   0  0  0  0  0  0  0  0  0  0  0  0
   -2.3132    2.2688  -19.5065 N   0  0  0  0  0  0  0  0  0  0  0  0
  -10.4519   -2.2727  -22.6507 C   0  0  0  0  0  0  0  0  0  0  0  0
   -9.7763   -3.3447  -23.4535 C   0  0  0  0  0  0  0  0  0  0  0  0
   -8.5047   -3.9655  -22.9557 C   0  0  0  0  0  0  0  0  0  0  0  0
   -7.8290   -5.0374  -23.7585 C   0  0  0  0  0  0  0  0  0  0  0  0
   -8.4250   -5.4885  -25.0591 C   0  0  0  0  0  0  0  0  0  0  0  0
   -9.6965   -4.8677  -25.5568 C   0  0  0  0  0  0  0  0  0  0  0  0
  -10.2924   -5.3188  -26.8573 Cl  0  0  0  0  0  0  0  0  0  0  0  0
  -10.3721   -3.7958  -24.7540 C   0  0  0  0  0  0  0  0  0  0  0  0
  -10.6044    1.5222  -23.8018 C   0  0  0  0  0  0  0  0  0  0  0  0
  -11.6030    2.6070  -23.5260 C   0  0  0  0  0  0  0  0  0  0  0  0
  -12.6012    2.4435  -22.4184 C   0  0  0  0  0  0  0  0  0  0  0  0
  -13.5998    3.5283  -22.1426 N   0  0  0  0  0  0  0  0  0  0  0  0
  -13.6002    4.7765  -22.9744 C   0  0  0  0  0  0  0  0  0  0  0  0
  -12.6019    4.9400  -24.0821 C   0  0  0  0  0  0  0  0  0  0  0  0
  -12.6023    6.1882  -24.9139 C   0  0  0  0  0  0  0  0  0  0  0  0
  -11.6041    6.3517  -26.0215 C   0  0  0  0  0  0  0  0  0  0  0  0
  -10.6055    5.2669  -26.2973 C   0  0  0  0  0  0  0  0  0  0  0  0
  -10.6051    4.0187  -25.4655 C   0  0  0  0  0  0  0  0  0  0  0  0
  -11.6033    3.8553  -24.3579 C   0  0  0  0  0  0  0  0  0  0  0  0
 10 11  1  0  0  0
 11 12  1  0  0  0
 11 13  1  0  0  0
 13 14  3  0  0  0
 11  4  1  0  0  0
  4  5  2  0  0  0
  5  6  1  0  0  0
  6  7  2  0  0  0
  7  1  1  0  0  0
  1 15  1  0  0  0
 15 16  1  0  0  0
 16 17  2  0  0  0
 17 18  1  0  0  0
 18 19  2  0  0  0
 19 20  1  0  0  0
 20 21  1  0  0  0
 20 22  2  0  0  0
  1  2  1  0  0  0
  2  3  2  0  0  0
  2 23  1  0  0  0
 23 24  1  0  0  0
 24 25  2  0  0  0
 25 26  1  0  0  0
 26 27  2  0  0  0
 27 28  1  0  0  0
 28 29  2  0  0  0
 29 30  1  0  0  0
 30 31  2  0  0  0
 31 32  1  0  0  0
 32 33  2  0  0  0
  7  8  1  0  0  0
  8  9  2  0  0  0
  9  4  1  0  0  0
 22 16  1  0  0  0
 33 24  1  0  0  0
 33 28  1  0  0  0
M  END
> <minimizedAffinity>
-8.17747

> <CNNscore>
0.5003181696

> <CNNaffinity>
6.3448233604

> <CNN_VS>
3.1744303703

> <CNNaffinity_variance>
0.1822976023

$$$$



 33 36  0  0  0  0  0  0  0  0999 V2000
   -7.0627   -1.7230  -24.2791 N   0  0  0  0  0  0  0  0  0  0  0  0
   -8.4678   -1.2031  -24.3544 C   0  0  0  0  0  0  0  0  0  0  0  0
   -9.4884   -1.9185  -25.1891 O   0  0  0  0  0  0  0  0  0  0  0  0
   -4.0008    0.4229  -21.7752 C   0  0  0  0  0  0  0  0  0  0  0  0
   -3.8426    0.3636  -23.2657 C   0  0  0  0  0  0  0  0  0  0  0  0
   -4.8633   -0.3517  -24.1003 C   0  0  0  0  0  0  0  0  0  0  0  0
   -6.0421   -1.0077  -23.4445 C   0  0  0  0  0  0  0  0  0  0  0  0
   -6.2003   -0.9484  -21.9540 C   0  0  0  0  0  0  0  0  0  0  0  0
   -5.1796   -0.2330  -21.1194 C   0  0  0  0  0  0  0  0  0  0  0  0
   -2.0853    1.2589  -22.1383 C   0  0  0  0  0  0  0  0  0  0  0  0
   -2.9802    1.1382  -20.9406 C   0  0  0  0  0  0  0  0  0  0  0  0
   -3.8750    1.0174  -19.7428 C   0  0  0  0  0  0  0  0  0  0  0  0
   -1.9595    1.8535  -20.1058 C   0  0  0  0  0  0  0  0  0  0  0  0
   -0.9389    2.5687  -19.2712 N   0  0  0  0  0  0  0  0  0  0  0  0
   -6.6784   -2.9582  -25.0385 C   0  0  0  0  0  0  0  0  0  0  0  0
   -6.9212   -4.3122  -24.4405 C   0  0  0  0  0  0  0  0  0  0  0  0
   -7.8758   -5.2631  -25.0999 C   0  0  0  0  0  0  0  0  0  0  0  0
   -8.1187   -6.6171  -24.5019 C   0  0  0  0  0  0  0  0  0  0  0  0
   -7.4069   -7.0203  -23.2445 C   0  0  0  0  0  0  0  0  0  0  0  0
   -6.4524   -6.0694  -22.5852 C   0  0  0  0  0  0  0  0  0  0  0  0
   -5.7407   -6.4726  -21.3279 Cl  0  0  0  0  0  0  0  0  0  0  0  0
   -6.2096   -4.7154  -23.1832 C   0  0  0  0  0  0  0  0  0  0  0  0
   -8.8522    0.0320  -23.5950 C   0  0  0  0  0  0  0  0  0  0  0  0
  -10.2588    0.5481  -23.6651 C   0  0  0  0  0  0  0  0  0  0  0  0
  -10.5207    1.9516  -24.1250 C   0  0  0  0  0  0  0  0  0  0  0  0
  -11.9274    2.4677  -24.1951 N   0  0  0  0  0  0  0  0  0  0  0  0
  -13.0722    1.5804  -23.8052 C   0  0  0  0  0  0  0  0  0  0  0  0
  -12.8103    0.1768  -23.3453 C   0  0  0  0  0  0  0  0  0  0  0  0
  -13.9551   -0.7105  -22.9554 C   0  0  0  0  0  0  0  0  0  0  0  0
  -13.6932   -2.1140  -22.4954 C   0  0  0  0  0  0  0  0  0  0  0  0
  -12.2865   -2.6302  -22.4254 C   0  0  0  0  0  0  0  0  0  0  0  0
  -11.1418   -1.7428  -22.8152 C   0  0  0  0  0  0  0  0  0  0  0  0
  -11.4037   -0.3393  -23.2752 C   0  0  0  0  0  0  0  0  0  0  0  0
 10 11  1  0  0  0
 11 12  1  0  0  0
 11 13  1  0  0  0
 13 14  3  0  0  0
 11  4  1  0  0  0
  4  5  2  0  0  0
  5  6  1  0  0  0
  6  7  2  0  0  0
  7  1  1  0  0  0
  1 15  1  0  0  0
 15 16  1  0  0  0
 16 17  2  0  0  0
 17 18  1  0  0  0
 18 19  2  0  0  0
 19 20  1  0  0  0
 20 21  1  0  0  0
 20 22  2  0  0  0
  1  2  1  0  0  0
  2  3  2  0  0  0
  2 23  1  0  0  0
 23 24  1  0  0  0
 24 25  2  0  0  0
 25 26  1  0  0  0
 26 27  2  0  0  0
 27 28  1  0  0  0
 28 29  2  0  0  0
 29 30  1  0  0  0
 30 31  2  0  0  0
 31 32  1  0  0  0
 32 33  2  0  0  0
  7  8  1  0  0  0
  8  9  2  0  0  0
  9  4  1  0  0  0
 22 16  1  0  0  0
 33 24  1  0  0  0
 33 28  1  0  0  0
M  END
> <minimizedAffinity>
-7.37214

> <CNNscore>
0.3948433995

> <CNNaffinity>
6.2024140358

> <CNN_VS>
2.4489822388

> <CNNaffinity_variance>
0.1762339622

$$$$



 33 36  0  0  0  0  0  0  0  0999 V2000
   -9.9983   -0.8997  -22.8969 N   0  0  0  0  0  0  0  0  0  0  0  0
  -10.9116    0.0306  -23.6387 C   0  0  0  0  0  0  0  0  0  0  0  0
  -12.1983   -0.4824  -24.2145 O   0  0  0  0  0  0  0  0  0  0  0  0
   -6.1385    0.6390  -21.1695 C   0  0  0  0  0  0  0  0  0  0  0  0
   -6.8683   -0.4833  -20.4928 C   0  0  0  0  0  0  0  0  0  0  0  0
   -8.1549   -0.9962  -21.0686 C   0  0  0  0  0  0  0  0  0  0  0  0
   -8.7117   -0.3868  -22.3211 C   0  0  0  0  0  0  0  0  0  0  0  0
   -7.9819    0.7354  -22.9978 C   0  0  0  0  0  0  0  0  0  0  0  0
   -6.6952    1.2484  -22.4219 C   0  0  0  0  0  0  0  0  0  0  0  0
   -4.8233    2.2395  -21.6263 C   0  0  0  0  0  0  0  0  0  0  0  0
   -4.8519    1.1519  -20.5937 C   0  0  0  0  0  0  0  0  0  0  0  0
   -4.8804    0.0643  -19.5611 C   0  0  0  0  0  0  0  0  0  0  0  0
   -3.5652    1.6648  -20.0179 C   0  0  0  0  0  0  0  0  0  0  0  0
   -2.2786    2.1776  -19.4420 N   0  0  0  0  0  0  0  0  0  0  0  0
  -10.3716   -2.3431  -22.7309 C   0  0  0  0  0  0  0  0  0  0  0  0
   -9.8320   -3.3713  -23.6804 C   0  0  0  0  0  0  0  0  0  0  0  0
  -10.6392   -3.7863  -24.8746 C   0  0  0  0  0  0  0  0  0  0  0  0
  -10.0996   -4.8145  -25.8241 C   0  0  0  0  0  0  0  0  0  0  0  0
   -8.7527   -5.4278  -25.5794 C   0  0  0  0  0  0  0  0  0  0  0  0
   -7.9455   -5.0128  -24.3852 C   0  0  0  0  0  0  0  0  0  0  0  0
   -6.5986   -5.6260  -24.1404 Cl  0  0  0  0  0  0  0  0  0  0  0  0
   -8.4851   -3.9845  -23.4357 C   0  0  0  0  0  0  0  0  0  0  0  0
  -10.5383    1.4739  -23.8047 C   0  0  0  0  0  0  0  0  0  0  0  0
  -11.5477    2.5469  -23.5220 C   0  0  0  0  0  0  0  0  0  0  0  0
  -12.5369    2.3714  -22.4083 C   0  0  0  0  0  0  0  0  0  0  0  0
  -13.5463    3.4444  -22.1256 N   0  0  0  0  0  0  0  0  0  0  0  0
  -13.5663    4.6930  -22.9567 C   0  0  0  0  0  0  0  0  0  0  0  0
  -12.5770    4.8685  -24.0705 C   0  0  0  0  0  0  0  0  0  0  0  0
  -12.5970    6.1171  -24.9015 C   0  0  0  0  0  0  0  0  0  0  0  0
  -11.6077    6.2926  -26.0153 C   0  0  0  0  0  0  0  0  0  0  0  0
  -10.5984    5.2195  -26.2980 C   0  0  0  0  0  0  0  0  0  0  0  0
  -10.5784    3.9710  -25.4669 C   0  0  0  0  0  0  0  0  0  0  0  0
  -11.5676    3.7955  -24.3532 C   0  0  0  0  0  0  0  0  0  0  0  0
 10 11  1  0  0  0
 11 12  1  0  0  0
 11 13  1  0  0  0
 13 14  3  0  0  0
 11  4  1  0  0  0
  4  5  2  0  0  0
  5  6  1  0  0  0
  6  7  2  0  0  0
  7  1  1  0  0  0
  1 15  1  0  0  0
 15 16  1  0  0  0
 16 17  2  0  0  0
 17 18  1  0  0  0
 18 19  2  0  0  0
 19 20  1  0  0  0
 20 21  1  0  0  0
 20 22  2  0  0  0
  1  2  1  0  0  0
  2  3  2  0  0  0
  2 23  1  0  0  0
 23 24  1  0  0  0
 24 25  2  0  0  0
 25 26  1  0  0  0
 26 27  2  0  0  0
 27 28  1  0  0  0
 28 29  2  0  0  0
 29 30  1  0  0  0
 30 31  2  0  0  0
 31 32  1  0  0  0
 32 33  2  0  0  0
  7  8  1  0  0  0
  8  9  2  0  0  0
  9  4  1  0  0  0
 22 16  1  0  0  0
 33 24  1  0  0  0
 33 28  1  0  0  0
M  END
> <minimizedAffinity>
-8.31338

> <CNNscore>
0.3854322731

> <CNNaffinity>
6.1656637192

> <CNN_VS>
2.3764457703

> <CNNaffinity_variance>
0.2595084310

$$$$



 33 36  0  0  0  0  0  0  0  0999 V2000
   -8.2522   -2.8709  -22.7880 N   0  0  0  0  0  0  0  0  0  0  0  0
   -6.8377   -2.5414  -22.4129 C   0  0  0  0  0  0  0  0  0  0  0  0
   -5.8401   -3.6428  -22.2079 O   0  0  0  0  0  0  0  0  0  0  0  0
  -11.2449    0.4329  -23.4029 C   0  0  0  0  0  0  0  0  0  0  0  0
  -11.6483   -0.9949  -23.6229 C   0  0  0  0  0  0  0  0  0  0  0  0
  -10.6507   -2.0962  -23.4179 C   0  0  0  0  0  0  0  0  0  0  0  0
   -9.2497   -1.7697  -22.9929 C   0  0  0  0  0  0  0  0  0  0  0  0
   -8.8463   -0.3418  -22.7730 C   0  0  0  0  0  0  0  0  0  0  0  0
   -9.8439    0.7595  -22.9779 C   0  0  0  0  0  0  0  0  0  0  0  0
  -11.1259    2.5339  -23.6702 C   0  0  0  0  0  0  0  0  0  0  0  0
  -12.2424    1.5342  -23.6078 C   0  0  0  0  0  0  0  0  0  0  0  0
  -13.3589    0.5345  -23.5455 C   0  0  0  0  0  0  0  0  0  0  0  0
  -13.2400    2.6355  -23.8128 C   0  0  0  0  0  0  0  0  0  0  0  0
  -14.2376    3.7368  -24.0178 N   0  0  0  0  0  0  0  0  0  0  0  0
   -8.6691   -4.3018  -22.9581 C   0  0  0  0  0  0  0  0  0  0  0  0
   -8.3525   -5.0289  -24.2314 C   0  0  0  0  0  0  0  0  0  0  0  0
   -7.1996   -5.9872  -24.2810 C   0  0  0  0  0  0  0  0  0  0  0  0
   -6.8830   -6.7143  -25.5543 C   0  0  0  0  0  0  0  0  0  0  0  0
   -7.7194   -6.4830  -26.7779 C   0  0  0  0  0  0  0  0  0  0  0  0
   -8.8722   -5.5246  -26.7282 C   0  0  0  0  0  0  0  0  0  0  0  0
   -9.7084   -5.2934  -27.9517 Cl  0  0  0  0  0  0  0  0  0  0  0  0
   -9.1888   -4.7976  -25.4549 C   0  0  0  0  0  0  0  0  0  0  0  0
   -6.4208   -1.1107  -22.2427 C   0  0  0  0  0  0  0  0  0  0  0  0
   -5.9451   -0.6219  -20.9067 C   0  0  0  0  0  0  0  0  0  0  0  0
   -6.7060   -0.9769  -19.6638 C   0  0  0  0  0  0  0  0  0  0  0  0
   -6.2303   -0.4881  -18.3278 N   0  0  0  0  0  0  0  0  0  0  0  0
   -4.9937    0.3557  -18.2348 C   0  0  0  0  0  0  0  0  0  0  0  0
   -4.2327    0.7107  -19.4778 C   0  0  0  0  0  0  0  0  0  0  0  0
   -2.9960    1.5545  -19.3847 C   0  0  0  0  0  0  0  0  0  0  0  0
   -2.2351    1.9096  -20.6276 C   0  0  0  0  0  0  0  0  0  0  0  0
   -2.7108    1.4208  -21.9636 C   0  0  0  0  0  0  0  0  0  0  0  0
   -3.9474    0.5770  -22.0566 C   0  0  0  0  0  0  0  0  0  0  0  0
   -4.7084    0.2220  -20.8137 C   0  0  0  0  0  0  0  0  0  0  0  0
 10 11  1  0  0  0
 11 12  1  0  0  0
 11 13  1  0  0  0
 13 14  3  0  0  0
 11  4  1  0  0  0
  4  5  2  0  0  0
  5  6  1  0  0  0
  6  7  2  0  0  0
  7  1  1  0  0  0
  1 15  1  0  0  0
 15 16  1  0  0  0
 16 17  2  0  0  0
 17 18  1  0  0  0
 18 19  2  0  0  0
 19 20  1  0  0  0
 20 21  1  0  0  0
 20 22  2  0  0  0
  1  2  1  0  0  0
  2  3  2  0  0  0
  2 23  1  0  0  0
 23 24  1  0  0  0
 24 25  2  0  0  0
 25 26  1  0  0  0
 26 27  2  0  0  0
 27 28  1  0  0  0
 28 29  2  0  0  0
 29 30  1  0  0  0
 30 31  2  0  0  0
 31 32  1  0  0  0
 32 33  2  0  0  0
  7  8  1  0  0  0
  8  9  2  0  0  0
  9  4  1  0  0  0
 22 16  1  0  0  0
 33 24  1  0  0  0
 33 28  1  0  0  0
M  END
> <minimizedAffinity>
-8.27200

> <CNNscore>
0.3819410205

> <CNNaffinity>
6.4097533226

> <CNN_VS>
2.4481477737

> <CNNaffinity_variance>
0.1518207043

$$$$



 33 36  0  0  0  0  0  0  0  0999 V2000
   -7.4415   -2.7087  -22.3869 N   0  0  0  0  0  0  0  0  0  0  0  0
   -6.4443   -2.4317  -21.3012 C   0  0  0  0  0  0  0  0  0  0  0  0
   -5.3442   -3.4134  -21.0250 O   0  0  0  0  0  0  0  0  0  0  0  0
  -10.7416    0.2362  -23.2156 C   0  0  0  0  0  0  0  0  0  0  0  0
   -9.3099    0.6409  -23.4063 C   0  0  0  0  0  0  0  0  0  0  0  0
   -8.2099   -0.3408  -23.1301 C   0  0  0  0  0  0  0  0  0  0  0  0
   -8.5415   -1.7271  -22.6631 C   0  0  0  0  0  0  0  0  0  0  0  0
   -9.9733   -2.1318  -22.4724 C   0  0  0  0  0  0  0  0  0  0  0  0
  -11.0733   -1.1501  -22.7486 C   0  0  0  0  0  0  0  0  0  0  0  0
  -10.8246    2.3035  -23.6838 C   0  0  0  0  0  0  0  0  0  0  0  0
  -11.8416    1.2178  -23.4918 C   0  0  0  0  0  0  0  0  0  0  0  0
  -12.8586    0.1321  -23.2999 C   0  0  0  0  0  0  0  0  0  0  0  0
  -12.9417    2.1994  -23.7681 C   0  0  0  0  0  0  0  0  0  0  0  0
  -14.0418    3.1810  -24.0443 N   0  0  0  0  0  0  0  0  0  0  0  0
   -7.3387   -3.9675  -23.1964 C   0  0  0  0  0  0  0  0  0  0  0  0
   -7.9565   -4.0337  -24.5616 C   0  0  0  0  0  0  0  0  0  0  0  0
   -7.5353   -3.0614  -25.6234 C   0  0  0  0  0  0  0  0  0  0  0  0
   -8.1531   -3.1276  -26.9887 C   0  0  0  0  0  0  0  0  0  0  0  0
   -9.1921   -4.1661  -27.2922 C   0  0  0  0  0  0  0  0  0  0  0  0
   -9.6133   -5.1383  -26.2304 C   0  0  0  0  0  0  0  0  0  0  0  0
  -10.6523   -6.1767  -26.5339 Cl  0  0  0  0  0  0  0  0  0  0  0  0
   -8.9955   -5.0721  -24.8651 C   0  0  0  0  0  0  0  0  0  0  0  0
   -6.5470   -1.1731  -20.4917 C   0  0  0  0  0  0  0  0  0  0  0  0
   -5.3539   -0.2759  -20.3456 C   0  0  0  0  0  0  0  0  0  0  0  0
   -5.0184    0.3139  -19.0079 C   0  0  0  0  0  0  0  0  0  0  0  0
   -3.8253    1.2112  -18.8617 N   0  0  0  0  0  0  0  0  0  0  0  0
   -2.9676    1.5186  -20.0533 C   0  0  0  0  0  0  0  0  0  0  0  0
   -3.3031    0.9288  -21.3911 C   0  0  0  0  0  0  0  0  0  0  0  0
   -2.4454    1.2362  -22.5826 C   0  0  0  0  0  0  0  0  0  0  0  0
   -2.7809    0.6464  -23.9203 C   0  0  0  0  0  0  0  0  0  0  0  0
   -3.9740   -0.2509  -24.0665 C   0  0  0  0  0  0  0  0  0  0  0  0
   -4.8317   -0.5583  -22.8749 C   0  0  0  0  0  0  0  0  0  0  0  0
   -4.4962    0.0315  -21.5372 C   0  0  0  0  0  0  0  0  0  0  0  0
 10 11  1  0  0  0
 11 12  1  0  0  0
 11 13  1  0  0  0
 13 14  3  0  0  0
 11  4  1  0  0  0
  4  5  2  0  0  0
  5  6  1  0  0  0
  6  7  2  0  0  0
  7  1  1  0  0  0
  1 15  1  0  0  0
 15 16  1  0  0  0
 16 17  2  0  0  0
 17 18  1  0  0  0
 18 19  2  0  0  0
 19 20  1  0  0  0
 20 21  1  0  0  0
 20 22  2  0  0  0
  1  2  1  0  0  0
  2  3  2  0  0  0
  2 23  1  0  0  0
 23 24  1  0  0  0
 24 25  2  0  0  0
 25 26  1  0  0  0
 26 27  2  0  0  0
 27 28  1  0  0  0
 28 29  2  0  0  0
 29 30  1  0  0  0
 30 31  2  0  0  0
 31 32  1  0  0  0
 32 33  2  0  0  0
  7  8  1  0  0  0
  8  9  2  0  0  0
  9  4  1  0  0  0
 22 16  1  0  0  0
 33 24  1  0  0  0
 33 28  1  0  0  0
M  END
> <minimizedAffinity>
-7.61460

> <CNNscore>
0.3359410763

> <CNNaffinity>
6.2633600235

> <CNN_VS>
2.1041200161

> <CNNaffinity_variance>
0.2932597697

$$$$



 33 36  0  0  0  0  0  0  0  0999 V2000
   -8.1796   -2.8619  -22.6783 N   0  0  0  0  0  0  0  0  0  0  0  0
   -6.7692   -2.5080  -22.3101 C   0  0  0  0  0  0  0  0  0  0  0  0
   -5.7564   -3.5928  -22.0917 O   0  0  0  0  0  0  0  0  0  0  0  0
  -11.2180    0.3921  -23.3335 C   0  0  0  0  0  0  0  0  0  0  0  0
   -9.8985    0.7151  -22.6974 C   0  0  0  0  0  0  0  0  0  0  0  0
   -8.8857   -0.3696  -22.4790 C   0  0  0  0  0  0  0  0  0  0  0  0
   -9.1924   -1.7773  -22.8967 C   0  0  0  0  0  0  0  0  0  0  0  0
  -10.5118   -2.1002  -23.5329 C   0  0  0  0  0  0  0  0  0  0  0  0
  -11.5247   -1.0155  -23.7513 C   0  0  0  0  0  0  0  0  0  0  0  0
  -11.1267    2.4868  -23.6560 C   0  0  0  0  0  0  0  0  0  0  0  0
  -12.2307    1.4768  -23.5519 C   0  0  0  0  0  0  0  0  0  0  0  0
  -13.3348    0.4668  -23.4479 C   0  0  0  0  0  0  0  0  0  0  0  0
  -13.2436    2.5615  -23.7703 C   0  0  0  0  0  0  0  0  0  0  0  0
  -14.2565    3.6461  -23.9887 N   0  0  0  0  0  0  0  0  0  0  0  0
   -8.5771   -4.3005  -22.8282 C   0  0  0  0  0  0  0  0  0  0  0  0
   -7.6052   -5.2920  -23.3959 C   0  0  0  0  0  0  0  0  0  0  0  0
   -7.0993   -6.4184  -22.5442 C   0  0  0  0  0  0  0  0  0  0  0  0
   -6.1273   -7.4099  -23.1118 C   0  0  0  0  0  0  0  0  0  0  0  0
   -5.6612   -7.2749  -24.5312 C   0  0  0  0  0  0  0  0  0  0  0  0
   -6.1670   -6.1485  -25.3828 C   0  0  0  0  0  0  0  0  0  0  0  0
   -5.7009   -6.0136  -26.8021 Cl  0  0  0  0  0  0  0  0  0  0  0  0
   -7.1390   -5.1571  -24.8152 C   0  0  0  0  0  0  0  0  0  0  0  0
   -6.3716   -1.0695  -22.1602 C   0  0  0  0  0  0  0  0  0  0  0  0
   -5.8780   -0.5616  -20.8379 C   0  0  0  0  0  0  0  0  0  0  0  0
   -6.6267   -0.8917  -19.5808 C   0  0  0  0  0  0  0  0  0  0  0  0
   -6.1331   -0.3839  -18.2585 N   0  0  0  0  0  0  0  0  0  0  0  0
   -4.8908    0.4541  -18.1934 C   0  0  0  0  0  0  0  0  0  0  0  0
   -4.1420    0.7843  -19.4505 C   0  0  0  0  0  0  0  0  0  0  0  0
   -2.8996    1.6223  -19.3853 C   0  0  0  0  0  0  0  0  0  0  0  0
   -2.1509    1.9524  -20.6424 C   0  0  0  0  0  0  0  0  0  0  0  0
   -2.6445    1.4445  -21.9647 C   0  0  0  0  0  0  0  0  0  0  0  0
   -3.8868    0.6065  -22.0299 C   0  0  0  0  0  0  0  0  0  0  0  0
   -4.6356    0.2764  -20.7728 C   0  0  0  0  0  0  0  0  0  0  0  0
 10 11  1  0  0  0
 11 12  1  0  0  0
 11 13  1  0  0  0
 13 14  3  0  0  0
 11  4  1  0  0  0
  4  5  2  0  0  0
  5  6  1  0  0  0
  6  7  2  0  0  0
  7  1  1  0  0  0
  1 15  1  0  0  0
 15 16  1  0  0  0
 16 17  2  0  0  0
 17 18  1  0  0  0
 18 19  2  0  0  0
 19 20  1  0  0  0
 20 21  1  0  0  0
 20 22  2  0  0  0
  1  2  1  0  0  0
  2  3  2  0  0  0
  2 23  1  0  0  0
 23 24  1  0  0  0
 24 25  2  0  0  0
 25 26  1  0  0  0
 26 27  2  0  0  0
 27 28  1  0  0  0
 28 29  2  0  0  0
 29 30  1  0  0  0
 30 31  2  0  0  0
 31 32  1  0  0  0
 32 33  2  0  0  0
  7  8  1  0  0  0
  8  9  2  0  0  0
  9  4  1  0  0  0
 22 16  1  0  0  0
 33 24  1  0  0  0
 33 28  1  0  0  0
M  END
> <minimizedAffinity>
-8.16596

> <CNNscore>
0.3101923466

> <CNNaffinity>
6.2345838547

> <CNN_VS>
1.9339201450

> <CNNaffinity_variance>
0.2235321552

$$$$



 33 36  0  0  0  0  0  0  0  0999 V2000
   -8.2580   -2.8660  -22.8560 N   0  0  0  0  0  0  0  0  0  0  0  0
   -6.8434   -2.5436  -22.4754 C   0  0  0  0  0  0  0  0  0  0  0  0
   -5.8477   -3.6492  -22.2838 O   0  0  0  0  0  0  0  0  0  0  0  0
  -11.2449    0.4504  -23.4306 C   0  0  0  0  0  0  0  0  0  0  0  0
  -11.6791   -0.9800  -23.5552 C   0  0  0  0  0  0  0  0  0  0  0  0
  -10.6835   -2.0854  -23.3637 C   0  0  0  0  0  0  0  0  0  0  0  0
   -9.2536   -1.7605  -23.0475 C   0  0  0  0  0  0  0  0  0  0  0  0
   -8.8194   -0.3302  -22.9229 C   0  0  0  0  0  0  0  0  0  0  0  0
   -9.8151    0.7753  -23.1144 C   0  0  0  0  0  0  0  0  0  0  0  0
  -13.3614    0.5645  -23.5169 C   0  0  0  0  0  0  0  0  0  0  0  0
  -12.2405    1.5558  -23.6221 C   0  0  0  0  0  0  0  0  0  0  0  0
  -11.1197    2.5470  -23.7273 C   0  0  0  0  0  0  0  0  0  0  0  0
  -13.2362    2.6613  -23.8136 C   0  0  0  0  0  0  0  0  0  0  0  0
  -14.2318    3.7668  -24.0051 N   0  0  0  0  0  0  0  0  0  0  0  0
   -8.6770   -4.2938  -23.0451 C   0  0  0  0  0  0  0  0  0  0  0  0
   -8.4721   -4.9664  -24.3702 C   0  0  0  0  0  0  0  0  0  0  0  0
   -9.4889   -4.8009  -25.4605 C   0  0  0  0  0  0  0  0  0  0  0  0
   -9.2839   -5.4734  -26.7855 C   0  0  0  0  0  0  0  0  0  0  0  0
   -8.0621   -6.3114  -27.0202 C   0  0  0  0  0  0  0  0  0  0  0  0
   -7.0454   -6.4769  -25.9299 C   0  0  0  0  0  0  0  0  0  0  0  0
   -5.8237   -7.3149  -26.1646 Cl  0  0  0  0  0  0  0  0  0  0  0  0
   -7.2504   -5.8044  -24.6049 C   0  0  0  0  0  0  0  0  0  0  0  0
   -6.4243   -1.1159  -22.2862 C   0  0  0  0  0  0  0  0  0  0  0  0
   -5.9654   -0.6410  -20.9394 C   0  0  0  0  0  0  0  0  0  0  0  0
   -6.7361   -1.0173  -19.7088 C   0  0  0  0  0  0  0  0  0  0  0  0
   -6.2772   -0.5425  -18.3620 N   0  0  0  0  0  0  0  0  0  0  0  0
   -5.0476    0.3087  -18.2458 C   0  0  0  0  0  0  0  0  0  0  0  0
   -4.2769    0.6851  -19.4764 C   0  0  0  0  0  0  0  0  0  0  0  0
   -3.0473    1.5363  -19.3602 C   0  0  0  0  0  0  0  0  0  0  0  0
   -2.2766    1.9126  -20.5908 C   0  0  0  0  0  0  0  0  0  0  0  0
   -2.7355    1.4377  -21.9376 C   0  0  0  0  0  0  0  0  0  0  0  0
   -3.9651    0.5866  -22.0538 C   0  0  0  0  0  0  0  0  0  0  0  0
   -4.7358    0.2102  -20.8232 C   0  0  0  0  0  0  0  0  0  0  0  0
 10 11  1  0  0  0
 11 12  1  0  0  0
 11 13  1  0  0  0
 13 14  3  0  0  0
 11  4  1  0  0  0
  4  5  2  0  0  0
  5  6  1  0  0  0
  6  7  2  0  0  0
  7  1  1  0  0  0
  1 15  1  0  0  0
 15 16  1  0  0  0
 16 17  2  0  0  0
 17 18  1  0  0  0
 18 19  2  0  0  0
 19 20  1  0  0  0
 20 21  1  0  0  0
 20 22  2  0  0  0
  1  2  1  0  0  0
  2  3  2  0  0  0
  2 23  1  0  0  0
 23 24  1  0  0  0
 24 25  2  0  0  0
 25 26  1  0  0  0
 26 27  2  0  0  0
 27 28  1  0  0  0
 28 29  2  0  0  0
 29 30  1  0  0  0
 30 31  2  0  0  0
 31 32  1  0  0  0
 32 33  2  0  0  0
  7  8  1  0  0  0
  8  9  2  0  0  0
  9  4  1  0  0  0
 22 16  1  0  0  0
 33 24  1  0  0  0
 33 28  1  0  0  0
M  END
> <minimizedAffinity>
-8.14648

> <CNNscore>
0.2628716528

> <CNNaffinity>
6.2436680794

> <CNN_VS>
1.6412833929

> <CNNaffinity_variance>
0.1789282560

$$$$



 33 36  0  0  0  0  0  0  0  0999 V2000
   -9.1283   -1.4741  -23.2249 N   0  0  0  0  0  0  0  0  0  0  0  0
   -8.3572   -0.7850  -22.1383 C   0  0  0  0  0  0  0  0  0  0  0  0
   -8.9868    0.3378  -21.3682 O   0  0  0  0  0  0  0  0  0  0  0  0
   -7.2398   -4.8424  -25.5353 C   0  0  0  0  0  0  0  0  0  0  0  0
   -8.6035   -5.0165  -24.9353 C   0  0  0  0  0  0  0  0  0  0  0  0
   -9.2330   -3.8938  -24.1652 C   0  0  0  0  0  0  0  0  0  0  0  0
   -8.4988   -2.5968  -23.9950 C   0  0  0  0  0  0  0  0  0  0  0  0
   -7.1351   -2.4227  -24.5950 C   0  0  0  0  0  0  0  0  0  0  0  0
   -6.5056   -3.5455  -25.3652 C   0  0  0  0  0  0  0  0  0  0  0  0
   -7.9667   -6.4096  -26.7662 C   0  0  0  0  0  0  0  0  0  0  0  0
   -6.6103   -5.9652  -26.3054 C   0  0  0  0  0  0  0  0  0  0  0  0
   -5.2538   -5.5207  -25.8446 C   0  0  0  0  0  0  0  0  0  0  0  0
   -5.9807   -7.0880  -27.0755 C   0  0  0  0  0  0  0  0  0  0  0  0
   -5.3511   -8.2107  -27.8456 N   0  0  0  0  0  0  0  0  0  0  0  0
  -10.5290   -1.0403  -23.5414 C   0  0  0  0  0  0  0  0  0  0  0  0
  -10.8350    0.4134  -23.7495 C   0  0  0  0  0  0  0  0  0  0  0  0
   -9.9032    1.2678  -24.5568 C   0  0  0  0  0  0  0  0  0  0  0  0
  -10.2092    2.7215  -24.7649 C   0  0  0  0  0  0  0  0  0  0  0  0
  -11.4469    3.3206  -24.1657 C   0  0  0  0  0  0  0  0  0  0  0  0
  -12.3786    2.4662  -23.3584 C   0  0  0  0  0  0  0  0  0  0  0  0
  -13.6163    3.0653  -22.7592 Cl  0  0  0  0  0  0  0  0  0  0  0  0
  -12.0727    1.0125  -23.1503 C   0  0  0  0  0  0  0  0  0  0  0  0
   -6.9567   -1.2187  -21.8219 C   0  0  0  0  0  0  0  0  0  0  0  0
   -6.2617   -0.6813  -20.6060 C   0  0  0  0  0  0  0  0  0  0  0  0
   -6.8130   -0.9652  -19.2402 C   0  0  0  0  0  0  0  0  0  0  0  0
   -6.1181   -0.4278  -18.0243 N   0  0  0  0  0  0  0  0  0  0  0  0
   -4.8719    0.3935  -18.1743 C   0  0  0  0  0  0  0  0  0  0  0  0
   -4.3206    0.6774  -19.5402 C   0  0  0  0  0  0  0  0  0  0  0  0
   -3.0745    1.4987  -19.6901 C   0  0  0  0  0  0  0  0  0  0  0  0
   -2.5232    1.7826  -21.0559 C   0  0  0  0  0  0  0  0  0  0  0  0
   -3.2181    1.2452  -22.2718 C   0  0  0  0  0  0  0  0  0  0  0  0
   -4.4643    0.4239  -22.1218 C   0  0  0  0  0  0  0  0  0  0  0  0
   -5.0155    0.1400  -20.7560 C   0  0  0  0  0  0  0  0  0  0  0  0
 10 11  1  0  0  0
 11 12  1  0  0  0
 11 13  1  0  0  0
 13 14  3  0  0  0
 11  4  1  0  0  0
  4  5  2  0  0  0
  5  6  1  0  0  0
  6  7  2  0  0  0
  7  1  1  0  0  0
  1 15  1  0  0  0
 15 16  1  0  0  0
 16 17  2  0  0  0
 17 18  1  0  0  0
 18 19  2  0  0  0
 19 20  1  0  0  0
 20 21  1  0  0  0
 20 22  2  0  0  0
  1  2  1  0  0  0
  2  3  2  0  0  0
  2 23  1  0  0  0
 23 24  1  0  0  0
 24 25  2  0  0  0
 25 26  1  0  0  0
 26 27  2  0  0  0
 27 28  1  0  0  0
 28 29  2  0  0  0
 29 30  1  0  0  0
 30 31  2  0  0  0
 31 32  1  0  0  0
 32 33  2  0  0  0
  7  8  1  0  0  0
  8  9  2  0  0  0
  9  4  1  0  0  0
 22 16  1  0  0  0
 33 24  1  0  0  0
 33 28  1  0  0  0
M  END
> <minimizedAffinity>
-7.84117

> <CNNscore>
0.2498384565

> <CNNaffinity>
6.0118246078

> <CNN_VS>
1.5019849539

> <CNNaffinity_variance>
0.2126285732

$$$$
