


 35 40  0  0  0  0  0  0  0  0999 V2000
   -6.7472   -1.7256  -21.0382 N   0  0  0  0  0  0  0  0  0  0  0  0
   -6.2516   -3.1046  -21.3588 C   0  0  0  0  0  0  0  0  0  0  0  0
   -5.0696   -3.7843  -20.7335 O   0  0  0  0  0  0  0  0  0  0  0  0
   -7.1455   -3.6847  -22.4145 C   0  0  0  0  0  0  0  0  0  0  0  0
   -7.1406   -5.0103  -23.1165 C   0  0  0  0  0  0  0  0  0  0  0  0
   -8.1837   -5.3154  -24.1503 C   0  0  0  0  0  0  0  0  0  0  0  0
   -9.2317   -4.2949  -24.4822 C   0  0  0  0  0  0  0  0  0  0  0  0
  -10.2749   -4.6000  -25.5160 Cl  0  0  0  0  0  0  0  0  0  0  0  0
   -9.2367   -2.9693  -23.7802 C   0  0  0  0  0  0  0  0  0  0  0  0
   -8.1936   -2.6642  -22.7464 C   0  0  0  0  0  0  0  0  0  0  0  0
   -7.9474   -1.4535  -21.8958 C   0  0  0  0  0  0  0  0  0  0  0  0
   -9.0942   -1.4703  -22.8626 C   0  0  0  0  0  0  0  0  0  0  0  0
   -9.5897   -0.0913  -22.5420 C   0  0  0  0  0  0  0  0  0  0  0  0
   -8.9904    0.8502  -21.5398 O   0  0  0  0  0  0  0  0  0  0  0  0
  -10.7900    0.1809  -23.3996 N   0  0  0  0  0  0  0  0  0  0  0  0
  -11.0361   -1.0299  -24.2501 C   0  0  0  0  0  0  0  0  0  0  0  0
   -9.9881   -2.0504  -23.9183 C   0  0  0  0  0  0  0  0  0  0  0  0
   -9.8570   -3.4118  -24.5340 C   0  0  0  0  0  0  0  0  0  0  0  0
  -10.8308   -3.8568  -25.5845 F   0  0  0  0  0  0  0  0  0  0  0  0
  -11.6016    1.4424  -23.4055 C   0  0  0  0  0  0  0  0  0  0  0  0
  -13.0215    1.4229  -22.9222 C   0  0  0  0  0  0  0  0  0  0  0  0
  -13.8331    2.6844  -22.9282 N   0  0  0  0  0  0  0  0  0  0  0  0
  -13.2249    3.9652  -23.4174 C   0  0  0  0  0  0  0  0  0  0  0  0
  -11.8050    3.9847  -23.9007 C   0  0  0  0  0  0  0  0  0  0  0  0
  -11.1967    5.2656  -24.3899 C   0  0  0  0  0  0  0  0  0  0  0  0
   -9.7768    5.2850  -24.8732 C   0  0  0  0  0  0  0  0  0  0  0  0
   -8.9652    4.0236  -24.8672 C   0  0  0  0  0  0  0  0  0  0  0  0
   -9.5735    2.7427  -24.3780 C   0  0  0  0  0  0  0  0  0  0  0  0
  -10.9933    2.7233  -23.8947 C   0  0  0  0  0  0  0  0  0  0  0  0
   -6.1479   -0.7842  -20.0361 C   0  0  0  0  0  0  0  0  0  0  0  0
   -3.0173    1.6298  -19.6859 C   0  0  0  0  0  0  0  0  0  0  0  0
   -4.2798    0.8892  -19.3577 N   0  0  0  0  0  0  0  0  0  0  0  0
   -4.8854   -0.0436  -20.3642 C   0  0  0  0  0  0  0  0  0  0  0  0
   -4.2285   -0.2358  -21.6990 O   0  0  0  0  0  0  0  0  0  0  0  0
   -4.7109    1.0154  -18.4817 H   0  0  0  0  0  0  0  0  0  0  0  0
 31 32  1  0  0  0
 32 33  1  0  0  0
 33 34  2  0  0  0
 33 30  1  0  0  0
 30  1  1  0  0  0
  1  2  1  0  0  0
  2  3  2  0  0  0
  2  4  1  0  0  0
  4  5  2  0  0  0
  5  6  1  0  0  0
  6  7  2  0  0  0
  7  8  1  0  0  0
  7  9  1  0  0  0
 10  9  1  0  0  0
 10 11  1  0  0  0
 11 12  1  0  0  0
 12 13  1  0  0  0
 13 14  2  0  0  0
 13 15  1  0  0  0
 15 20  1  0  0  0
 20 21  2  0  0  0
 21 22  1  0  0  0
 22 23  2  0  0  0
 23 24  1  0  0  0
 24 25  2  0  0  0
 25 26  1  0  0  0
 26 27  2  0  0  0
 27 28  1  0  0  0
 28 29  2  0  0  0
 15 16  1  0  0  0
 16 17  1  0  0  0
 17 18  2  0  0  0
 18 19  1  0  0  0
 11  1  1  0  0  0
 17 12  1  0  0  0
 10  4  1  0  0  0
 29 20  1  0  0  0
 12 10  1  0  0  0
 29 24  1  0  0  0
 32 35  1  0  0  0
M  END
> <minimizedAffinity>
-9.06117

> <CNNscore>
0.4963132441

> <CNNaffinity>
6.5951743126

> <CNN_VS>
3.2732722759

> <CNNaffinity_variance>
0.0724419579

$$$$



 35 40  0  0  0  0  0  0  0  0999 V2000
   -6.6046   -5.8163  -23.8030 N   0  0  0  0  0  0  0  0  0  0  0  0
   -7.6593   -6.2075  -24.7952 C   0  0  0  0  0  0  0  0  0  0  0  0
   -7.6509   -7.4391  -25.6515 O   0  0  0  0  0  0  0  0  0  0  0  0
   -8.7240   -5.1510  -24.7808 C   0  0  0  0  0  0  0  0  0  0  0  0
  -10.0034   -5.0049  -25.5499 C   0  0  0  0  0  0  0  0  0  0  0  0
  -10.8861   -3.8145  -25.3179 C   0  0  0  0  0  0  0  0  0  0  0  0
  -10.4894   -2.7703  -24.3168 C   0  0  0  0  0  0  0  0  0  0  0  0
  -11.3721   -1.5799  -24.0848 Cl  0  0  0  0  0  0  0  0  0  0  0  0
   -9.2099   -2.9164  -23.5477 C   0  0  0  0  0  0  0  0  0  0  0  0
   -8.3272   -4.1068  -23.7797 C   0  0  0  0  0  0  0  0  0  0  0  0
   -7.0174   -4.5180  -23.1754 C   0  0  0  0  0  0  0  0  0  0  0  0
   -7.6796   -3.2459  -22.7360 C   0  0  0  0  0  0  0  0  0  0  0  0
   -6.6248   -2.8547  -21.7438 C   0  0  0  0  0  0  0  0  0  0  0  0
   -5.3765   -3.6263  -21.4337 O   0  0  0  0  0  0  0  0  0  0  0  0
   -7.0376   -1.5563  -21.1161 N   0  0  0  0  0  0  0  0  0  0  0  0
   -8.3475   -1.1451  -21.7205 C   0  0  0  0  0  0  0  0  0  0  0  0
   -8.7442   -2.1893  -22.7216 C   0  0  0  0  0  0  0  0  0  0  0  0
   -9.9873   -2.1788  -23.5609 C   0  0  0  0  0  0  0  0  0  0  0  0
  -10.9664   -1.0491  -23.4370 F   0  0  0  0  0  0  0  0  0  0  0  0
   -6.2745   -0.8016  -20.0682 C   0  0  0  0  0  0  0  0  0  0  0  0
   -6.7466   -0.8107  -18.6444 C   0  0  0  0  0  0  0  0  0  0  0  0
   -5.9836   -0.0560  -17.5965 N   0  0  0  0  0  0  0  0  0  0  0  0
   -4.7484    0.7077  -17.9723 C   0  0  0  0  0  0  0  0  0  0  0  0
   -4.2763    0.7168  -19.3960 C   0  0  0  0  0  0  0  0  0  0  0  0
   -3.0412    1.4805  -19.7718 C   0  0  0  0  0  0  0  0  0  0  0  0
   -2.5691    1.4895  -21.1956 C   0  0  0  0  0  0  0  0  0  0  0  0
   -3.3322    0.7348  -22.2436 C   0  0  0  0  0  0  0  0  0  0  0  0
   -4.5673   -0.0289  -21.8677 C   0  0  0  0  0  0  0  0  0  0  0  0
   -5.0394   -0.0379  -20.4440 C   0  0  0  0  0  0  0  0  0  0  0  0
   -5.3562   -6.5880  -23.4929 C   0  0  0  0  0  0  0  0  0  0  0  0
   -2.3498   -6.3313  -26.0708 C   0  0  0  0  0  0  0  0  0  0  0  0
   -3.3076   -5.9808  -24.9709 N   0  0  0  0  0  0  0  0  0  0  0  0
   -4.3984   -6.9385  -24.5927 C   0  0  0  0  0  0  0  0  0  0  0  0
   -4.5314   -8.2467  -25.3146 O   0  0  0  0  0  0  0  0  0  0  0  0
   -3.2203   -5.1222  -24.4972 H   0  0  0  0  0  0  0  0  0  0  0  0
 31 32  1  0  0  0
 32 33  1  0  0  0
 33 34  2  0  0  0
 33 30  1  0  0  0
 30  1  1  0  0  0
  1  2  1  0  0  0
  2  3  2  0  0  0
  2  4  1  0  0  0
  4  5  2  0  0  0
  5  6  1  0  0  0
  6  7  2  0  0  0
  7  8  1  0  0  0
  7  9  1  0  0  0
 10  9  1  0  0  0
 10 11  1  0  0  0
 11 12  1  0  0  0
 12 13  1  0  0  0
 13 14  2  0  0  0
 13 15  1  0  0  0
 15 20  1  0  0  0
 20 21  2  0  0  0
 21 22  1  0  0  0
 22 23  2  0  0  0
 23 24  1  0  0  0
 24 25  2  0  0  0
 25 26  1  0  0  0
 26 27  2  0  0  0
 27 28  1  0  0  0
 28 29  2  0  0  0
 15 16  1  0  0  0
 16 17  1  0  0  0
 17 18  2  0  0  0
 18 19  1  0  0  0
 11  1  1  0  0  0
 17 12  1  0  0  0
 10  4  1  0  0  0
 29 20  1  0  0  0
 12 10  1  0  0  0
 29 24  1  0  0  0
 32 35  1  0  0  0
M  END
> <minimizedAffinity>
-8.84842

> <CNNscore>
0.4886958897

> <CNNaffinity>
6.4605422020

> <CNN_VS>
3.1572403908

> <CNNaffinity_variance>
0.1484937519

$$$$



 35 40  0  0  0  0  0  0  0  0999 V2000
   -9.0981   -4.1486  -24.4338 N   0  0  0  0  0  0  0  0  0  0  0  0
   -7.9149   -4.8517  -23.8375 C   0  0  0  0  0  0  0  0  0  0  0  0
   -7.4501   -6.2372  -24.1755 O   0  0  0  0  0  0  0  0  0  0  0  0
   -7.2780   -3.9260  -22.8437 C   0  0  0  0  0  0  0  0  0  0  0  0
   -6.0811   -4.0796  -21.9528 C   0  0  0  0  0  0  0  0  0  0  0  0
   -5.6739   -2.9579  -21.0440 C   0  0  0  0  0  0  0  0  0  0  0  0
   -6.4635   -1.6827  -21.0261 C   0  0  0  0  0  0  0  0  0  0  0  0
   -6.0562   -0.5610  -20.1173 Cl  0  0  0  0  0  0  0  0  0  0  0  0
   -7.6604   -1.5291  -21.9171 C   0  0  0  0  0  0  0  0  0  0  0  0
   -8.0677   -2.6508  -22.8259 C   0  0  0  0  0  0  0  0  0  0  0  0
   -9.1925   -2.7884  -23.8086 C   0  0  0  0  0  0  0  0  0  0  0  0
   -9.0326   -1.5197  -23.0245 C   0  0  0  0  0  0  0  0  0  0  0  0
  -10.2159   -0.8166  -23.6208 C   0  0  0  0  0  0  0  0  0  0  0  0
  -11.1420   -1.3756  -24.6599 O   0  0  0  0  0  0  0  0  0  0  0  0
  -10.3103    0.5437  -22.9956 N   0  0  0  0  0  0  0  0  0  0  0  0
   -9.1854    0.6811  -22.0128 C   0  0  0  0  0  0  0  0  0  0  0  0
   -8.3958   -0.5941  -22.0307 C   0  0  0  0  0  0  0  0  0  0  0  0
   -7.1824   -0.8913  -21.2005 C   0  0  0  0  0  0  0  0  0  0  0  0
   -6.6575    0.1380  -20.2440 F   0  0  0  0  0  0  0  0  0  0  0  0
  -11.3475    1.5837  -23.2997 C   0  0  0  0  0  0  0  0  0  0  0  0
  -12.7770    1.3546  -22.9069 C   0  0  0  0  0  0  0  0  0  0  0  0
  -13.8142    2.3947  -23.2111 N   0  0  0  0  0  0  0  0  0  0  0  0
  -13.4219    3.6638  -23.9078 C   0  0  0  0  0  0  0  0  0  0  0  0
  -11.9925    3.8929  -24.3005 C   0  0  0  0  0  0  0  0  0  0  0  0
  -11.6003    5.1620  -24.9973 C   0  0  0  0  0  0  0  0  0  0  0  0
  -10.1707    5.3910  -25.3900 C   0  0  0  0  0  0  0  0  0  0  0  0
   -9.1335    4.3510  -25.0859 C   0  0  0  0  0  0  0  0  0  0  0  0
   -9.5258    3.0819  -24.3891 C   0  0  0  0  0  0  0  0  0  0  0  0
  -10.9552    2.8528  -23.9964 C   0  0  0  0  0  0  0  0  0  0  0  0
  -10.0243   -4.7076  -25.4729 C   0  0  0  0  0  0  0  0  0  0  0  0
   -8.3819   -6.8501  -28.3819 C   0  0  0  0  0  0  0  0  0  0  0  0
   -8.9135   -6.4624  -27.0338 N   0  0  0  0  0  0  0  0  0  0  0  0
   -9.4927   -5.0952  -26.8209 C   0  0  0  0  0  0  0  0  0  0  0  0
   -9.5403   -4.1157  -27.9560 O   0  0  0  0  0  0  0  0  0  0  0  0
   -8.8823   -7.1053  -26.2889 H   0  0  0  0  0  0  0  0  0  0  0  0
 31 32  1  0  0  0
 32 33  1  0  0  0
 33 34  2  0  0  0
 33 30  1  0  0  0
 30  1  1  0  0  0
  1  2  1  0  0  0
  2  3  2  0  0  0
  2  4  1  0  0  0
  4  5  2  0  0  0
  5  6  1  0  0  0
  6  7  2  0  0  0
  7  8  1  0  0  0
  7  9  1  0  0  0
 10  9  1  0  0  0
 10 11  1  0  0  0
 11 12  1  0  0  0
 12 13  1  0  0  0
 13 14  2  0  0  0
 13 15  1  0  0  0
 15 20  1  0  0  0
 20 21  2  0  0  0
 21 22  1  0  0  0
 22 23  2  0  0  0
 23 24  1  0  0  0
 24 25  2  0  0  0
 25 26  1  0  0  0
 26 27  2  0  0  0
 27 28  1  0  0  0
 28 29  2  0  0  0
 15 16  1  0  0  0
 16 17  1  0  0  0
 17 18  2  0  0  0
 18 19  1  0  0  0
 11  1  1  0  0  0
 17 12  1  0  0  0
 10  4  1  0  0  0
 29 20  1  0  0  0
 12 10  1  0  0  0
 29 24  1  0  0  0
 32 35  1  0  0  0
M  END
> <minimizedAffinity>
-8.93193

> <CNNscore>
0.4721821547

> <CNNaffinity>
6.4152526855

> <CNN_VS>
3.0291678905

> <CNNaffinity_variance>
0.1726597100

$$$$



 35 40  0  0  0  0  0  0  0  0999 V2000
   -5.9720   -3.3286  -21.3721 N   0  0  0  0  0  0  0  0  0  0  0  0
   -5.9938   -4.7997  -21.6643 C   0  0  0  0  0  0  0  0  0  0  0  0
   -5.1963   -5.8519  -20.9525 O   0  0  0  0  0  0  0  0  0  0  0  0
   -6.9533   -5.0339  -22.7933 C   0  0  0  0  0  0  0  0  0  0  0  0
   -7.3807   -6.2835  -23.5044 C   0  0  0  0  0  0  0  0  0  0  0  0
   -8.3792   -6.2068  -24.6211 C   0  0  0  0  0  0  0  0  0  0  0  0
   -8.9503   -4.8804  -25.0267 C   0  0  0  0  0  0  0  0  0  0  0  0
   -9.9489   -4.8037  -26.1434 Cl  0  0  0  0  0  0  0  0  0  0  0  0
   -8.5229   -3.6308  -24.3156 C   0  0  0  0  0  0  0  0  0  0  0  0
   -7.5244   -3.7075  -23.1989 C   0  0  0  0  0  0  0  0  0  0  0  0
   -6.9179   -2.6536  -22.3206 C   0  0  0  0  0  0  0  0  0  0  0  0
   -7.9119   -2.2693  -23.3762 C   0  0  0  0  0  0  0  0  0  0  0  0
   -7.8900   -0.7982  -23.0840 C   0  0  0  0  0  0  0  0  0  0  0  0
   -7.0668   -0.1210  -22.0287 O   0  0  0  0  0  0  0  0  0  0  0  0
   -8.8360   -0.1231  -24.0325 N   0  0  0  0  0  0  0  0  0  0  0  0
   -9.4425   -1.1771  -24.9108 C   0  0  0  0  0  0  0  0  0  0  0  0
   -8.8714   -2.5035  -24.5052 C   0  0  0  0  0  0  0  0  0  0  0  0
   -9.2017   -3.8309  -25.1205 C   0  0  0  0  0  0  0  0  0  0  0  0
  -10.1861   -3.9101  -26.2496 F   0  0  0  0  0  0  0  0  0  0  0  0
   -9.1248    1.3476  -24.0921 C   0  0  0  0  0  0  0  0  0  0  0  0
   -8.0141    2.3197  -24.3595 C   0  0  0  0  0  0  0  0  0  0  0  0
   -8.3029    3.7904  -24.4192 N   0  0  0  0  0  0  0  0  0  0  0  0
   -9.7023    4.2890  -24.2115 C   0  0  0  0  0  0  0  0  0  0  0  0
  -10.8129    3.3170  -23.9441 C   0  0  0  0  0  0  0  0  0  0  0  0
  -12.2123    3.8155  -23.7364 C   0  0  0  0  0  0  0  0  0  0  0  0
  -13.3229    2.8433  -23.4690 C   0  0  0  0  0  0  0  0  0  0  0  0
  -13.0341    1.3726  -23.4093 C   0  0  0  0  0  0  0  0  0  0  0  0
  -11.6348    0.8740  -23.6170 C   0  0  0  0  0  0  0  0  0  0  0  0
  -10.5242    1.8462  -23.8844 C   0  0  0  0  0  0  0  0  0  0  0  0
   -5.1487   -2.6514  -20.3168 C   0  0  0  0  0  0  0  0  0  0  0  0
   -5.5627    0.3971  -17.8099 C   0  0  0  0  0  0  0  0  0  0  0  0
   -4.9305   -0.6129  -18.7211 N   0  0  0  0  0  0  0  0  0  0  0  0
   -5.7809   -1.6415  -19.4057 C   0  0  0  0  0  0  0  0  0  0  0  0
   -7.2636   -1.6600  -19.1792 O   0  0  0  0  0  0  0  0  0  0  0  0
   -3.9573   -0.6007  -18.8697 H   0  0  0  0  0  0  0  0  0  0  0  0
 31 32  1  0  0  0
 32 33  1  0  0  0
 33 34  2  0  0  0
 33 30  1  0  0  0
 30  1  1  0  0  0
  1  2  1  0  0  0
  2  3  2  0  0  0
  2  4  1  0  0  0
  4  5  2  0  0  0
  5  6  1  0  0  0
  6  7  2  0  0  0
  7  8  1  0  0  0
  7  9  1  0  0  0
 10  9  1  0  0  0
 10 11  1  0  0  0
 11 12  1  0  0  0
 12 13  1  0  0  0
 13 14  2  0  0  0
 13 15  1  0  0  0
 15 20  1  0  0  0
 20 21  2  0  0  0
 21 22  1  0  0  0
 22 23  2  0  0  0
 23 24  1  0  0  0
 24 25  2  0  0  0
 25 26  1  0  0  0
 26 27  2  0  0  0
 27 28  1  0  0  0
 28 29  2  0  0  0
 15 16  1  0  0  0
 16 17  1  0  0  0
 17 18  2  0  0  0
 18 19  1  0  0  0
 11  1  1  0  0  0
 17 12  1  0  0  0
 10  4  1  0  0  0
 29 20  1  0  0  0
 12 10  1  0  0  0
 29 24  1  0  0  0
 32 35  1  0  0  0
M  END
> <minimizedAffinity>
-8.36793

> <CNNscore>
0.4227222502

> <CNNaffinity>
6.6118059158

> <CNN_VS>
2.7949573994

> <CNNaffinity_variance>
0.1929617822

$$$$



 35 40  0  0  0  0  0  0  0  0999 V2000
   -4.4150    1.1088  -20.9066 N   0  0  0  0  0  0  0  0  0  0  0  0
   -3.0374    1.2632  -21.4795 C   0  0  0  0  0  0  0  0  0  0  0  0
   -1.7505    1.1942  -20.7120 O   0  0  0  0  0  0  0  0  0  0  0  0
   -3.1725    1.4987  -22.9547 C   0  0  0  0  0  0  0  0  0  0  0  0
   -2.1538    1.7201  -24.0333 C   0  0  0  0  0  0  0  0  0  0  0  0
   -2.5964    1.9326  -25.4506 C   0  0  0  0  0  0  0  0  0  0  0  0
   -4.0576    1.9237  -25.7895 C   0  0  0  0  0  0  0  0  0  0  0  0
   -4.5001    2.1363  -27.2069 Cl  0  0  0  0  0  0  0  0  0  0  0  0
   -5.0762    1.7024  -24.7109 C   0  0  0  0  0  0  0  0  0  0  0  0
   -4.6337    1.4898  -23.2936 C   0  0  0  0  0  0  0  0  0  0  0  0
   -5.4016    1.2489  -22.0278 C   0  0  0  0  0  0  0  0  0  0  0  0
   -6.1321    1.4291  -23.3254 C   0  0  0  0  0  0  0  0  0  0  0  0
   -7.5098    1.2747  -22.7525 C   0  0  0  0  0  0  0  0  0  0  0  0
   -7.8424    1.0242  -21.3114 O   0  0  0  0  0  0  0  0  0  0  0  0
   -8.4964    1.4148  -23.8736 N   0  0  0  0  0  0  0  0  0  0  0  0
   -7.7285    1.6558  -25.1394 C   0  0  0  0  0  0  0  0  0  0  0  0
   -6.2673    1.6646  -24.8006 C   0  0  0  0  0  0  0  0  0  0  0  0
   -5.1394    1.8725  -25.7672 C   0  0  0  0  0  0  0  0  0  0  0  0
   -5.4298    2.0977  -27.2215 F   0  0  0  0  0  0  0  0  0  0  0  0
   -9.9889    1.3290  -23.7506 C   0  0  0  0  0  0  0  0  0  0  0  0
  -10.8295    2.5555  -23.9486 C   0  0  0  0  0  0  0  0  0  0  0  0
  -12.3220    2.4697  -23.8256 N   0  0  0  0  0  0  0  0  0  0  0  0
  -12.9739    1.1575  -23.5046 C   0  0  0  0  0  0  0  0  0  0  0  0
  -12.1333   -0.0690  -23.3067 C   0  0  0  0  0  0  0  0  0  0  0  0
  -12.7852   -1.3813  -22.9857 C   0  0  0  0  0  0  0  0  0  0  0  0
  -11.9446   -2.6078  -22.7878 C   0  0  0  0  0  0  0  0  0  0  0  0
  -10.4521   -2.5220  -22.9108 C   0  0  0  0  0  0  0  0  0  0  0  0
   -9.8002   -1.2097  -23.2317 C   0  0  0  0  0  0  0  0  0  0  0  0
  -10.6408    0.0167  -23.4297 C   0  0  0  0  0  0  0  0  0  0  0  0
   -4.7477    0.8583  -19.4655 C   0  0  0  0  0  0  0  0  0  0  0  0
   -5.4571   -3.0460  -19.5231 C   0  0  0  0  0  0  0  0  0  0  0  0
   -5.0751   -1.6680  -19.9762 N   0  0  0  0  0  0  0  0  0  0  0  0
   -5.1295   -0.5197  -19.0126 C   0  0  0  0  0  0  0  0  0  0  0  0
   -5.5659   -0.7495  -17.5959 O   0  0  0  0  0  0  0  0  0  0  0  0
   -4.7888   -1.5172  -20.9060 H   0  0  0  0  0  0  0  0  0  0  0  0
 31 32  1  0  0  0
 32 33  1  0  0  0
 33 34  2  0  0  0
 33 30  1  0  0  0
 30  1  1  0  0  0
  1  2  1  0  0  0
  2  3  2  0  0  0
  2  4  1  0  0  0
  4  5  2  0  0  0
  5  6  1  0  0  0
  6  7  2  0  0  0
  7  8  1  0  0  0
  7  9  1  0  0  0
 10  9  1  0  0  0
 10 11  1  0  0  0
 11 12  1  0  0  0
 12 13  1  0  0  0
 13 14  2  0  0  0
 13 15  1  0  0  0
 15 20  1  0  0  0
 20 21  2  0  0  0
 21 22  1  0  0  0
 22 23  2  0  0  0
 23 24  1  0  0  0
 24 25  2  0  0  0
 25 26  1  0  0  0
 26 27  2  0  0  0
 27 28  1  0  0  0
 28 29  2  0  0  0
 15 16  1  0  0  0
 16 17  1  0  0  0
 17 18  2  0  0  0
 18 19  1  0  0  0
 11  1  1  0  0  0
 17 12  1  0  0  0
 10  4  1  0  0  0
 29 20  1  0  0  0
 12 10  1  0  0  0
 29 24  1  0  0  0
 32 35  1  0  0  0
M  END
> <minimizedAffinity>
-7.94113

> <CNNscore>
0.4221183062

> <CNNaffinity>
6.2051019669

> <CNN_VS>
2.6192870140

> <CNNaffinity_variance>
0.0993308872

$$$$



 35 40  0  0  0  0  0  0  0  0999 V2000
   -4.6287    1.2117  -20.0112 N   0  0  0  0  0  0  0  0  0  0  0  0
   -3.4394    2.0956  -20.2437 C   0  0  0  0  0  0  0  0  0  0  0  0
   -2.1877    2.1249  -19.4176 O   0  0  0  0  0  0  0  0  0  0  0  0
   -3.7214    2.9452  -21.4474 C   0  0  0  0  0  0  0  0  0  0  0  0
   -2.9127    3.9992  -22.1437 C   0  0  0  0  0  0  0  0  0  0  0  0
   -3.4677    4.6943  -23.3515 C   0  0  0  0  0  0  0  0  0  0  0  0
   -4.8314    4.3354  -23.8629 C   0  0  0  0  0  0  0  0  0  0  0  0
   -5.3863    5.0306  -25.0708 Cl  0  0  0  0  0  0  0  0  0  0  0  0
   -5.6401    3.2814  -23.1665 C   0  0  0  0  0  0  0  0  0  0  0  0
   -5.0851    2.5863  -21.9588 C   0  0  0  0  0  0  0  0  0  0  0  0
   -5.6458    1.5149  -21.0712 C   0  0  0  0  0  0  0  0  0  0  0  0
   -6.4494    2.0252  -22.2304 C   0  0  0  0  0  0  0  0  0  0  0  0
   -7.6388    1.1413  -21.9979 C   0  0  0  0  0  0  0  0  0  0  0  0
   -7.7853    0.1314  -20.8985 O   0  0  0  0  0  0  0  0  0  0  0  0
   -8.6560    1.4445  -23.0579 N   0  0  0  0  0  0  0  0  0  0  0  0
   -8.0952    2.5159  -23.9454 C   0  0  0  0  0  0  0  0  0  0  0  0
   -6.7315    2.8748  -23.4340 C   0  0  0  0  0  0  0  0  0  0  0  0
   -5.8115    3.9028  -24.0229 C   0  0  0  0  0  0  0  0  0  0  0  0
   -6.2323    4.6793  -25.2352 F   0  0  0  0  0  0  0  0  0  0  0  0
   -9.9982    0.7911  -23.2046 C   0  0  0  0  0  0  0  0  0  0  0  0
  -11.2488    1.5864  -22.9728 C   0  0  0  0  0  0  0  0  0  0  0  0
  -12.5910    0.9330  -23.1195 N   0  0  0  0  0  0  0  0  0  0  0  0
  -12.6826   -0.5156  -23.4979 C   0  0  0  0  0  0  0  0  0  0  0  0
  -11.4321   -1.3108  -23.7296 C   0  0  0  0  0  0  0  0  0  0  0  0
  -11.5238   -2.7594  -24.1080 C   0  0  0  0  0  0  0  0  0  0  0  0
  -10.2731   -3.5547  -24.3397 C   0  0  0  0  0  0  0  0  0  0  0  0
   -8.9309   -2.9013  -24.1931 C   0  0  0  0  0  0  0  0  0  0  0  0
   -8.8392   -1.4527  -23.8147 C   0  0  0  0  0  0  0  0  0  0  0  0
  -10.0898   -0.6575  -23.5830 C   0  0  0  0  0  0  0  0  0  0  0  0
   -4.7752    0.2018  -18.9119 C   0  0  0  0  0  0  0  0  0  0  0  0
   -5.7147   -3.0846  -20.9286 C   0  0  0  0  0  0  0  0  0  0  0  0
   -5.2036   -1.7085  -20.6198 N   0  0  0  0  0  0  0  0  0  0  0  0
   -5.2862   -1.1742  -19.2206 C   0  0  0  0  0  0  0  0  0  0  0  0
   -5.8799   -2.0161  -18.1302 O   0  0  0  0  0  0  0  0  0  0  0  0
   -4.8140   -1.1560  -21.3355 H   0  0  0  0  0  0  0  0  0  0  0  0
 31 32  1  0  0  0
 32 33  1  0  0  0
 33 34  2  0  0  0
 33 30  1  0  0  0
 30  1  1  0  0  0
  1  2  1  0  0  0
  2  3  2  0  0  0
  2  4  1  0  0  0
  4  5  2  0  0  0
  5  6  1  0  0  0
  6  7  2  0  0  0
  7  8  1  0  0  0
  7  9  1  0  0  0
 10  9  1  0  0  0
 10 11  1  0  0  0
 11 12  1  0  0  0
 12 13  1  0  0  0
 13 14  2  0  0  0
 13 15  1  0  0  0
 15 20  1  0  0  0
 20 21  2  0  0  0
 21 22  1  0  0  0
 22 23  2  0  0  0
 23 24  1  0  0  0
 24 25  2  0  0  0
 25 26  1  0  0  0
 26 27  2  0  0  0
 27 28  1  0  0  0
 28 29  2  0  0  0
 15 16  1  0  0  0
 16 17  1  0  0  0
 17 18  2  0  0  0
 18 19  1  0  0  0
 11  1  1  0  0  0
 17 12  1  0  0  0
 10  4  1  0  0  0
 29 20  1  0  0  0
 12 10  1  0  0  0
 29 24  1  0  0  0
 32 35  1  0  0  0
M  END
> <minimizedAffinity>
-8.44129

> <CNNscore>
0.4177332520

> <CNNaffinity>
6.2229118347

> <CNN_VS>
2.5995171070

> <CNNaffinity_variance>
0.0622727685

$$$$



 35 40  0  0  0  0  0  0  0  0999 V2000
   -4.5392    1.3173  -20.0580 N   0  0  0  0  0  0  0  0  0  0  0  0
   -3.2884    2.1268  -20.2314 C   0  0  0  0  0  0  0  0  0  0  0  0
   -2.0691    2.0631  -19.3600 O   0  0  0  0  0  0  0  0  0  0  0  0
   -3.4708    3.0111  -21.4292 C   0  0  0  0  0  0  0  0  0  0  0  0
   -2.5714    4.0218  -22.0769 C   0  0  0  0  0  0  0  0  0  0  0  0
   -3.0356    4.7695  -23.2915 C   0  0  0  0  0  0  0  0  0  0  0  0
   -4.3993    4.5066  -23.8584 C   0  0  0  0  0  0  0  0  0  0  0  0
   -4.8635    5.2544  -25.0731 Cl  0  0  0  0  0  0  0  0  0  0  0  0
   -5.2987    3.4959  -23.2107 C   0  0  0  0  0  0  0  0  0  0  0  0
   -4.8344    2.7482  -21.9961 C   0  0  0  0  0  0  0  0  0  0  0  0
   -5.4947    1.7013  -21.1487 C   0  0  0  0  0  0  0  0  0  0  0  0
   -6.2205    2.2799  -22.3270 C   0  0  0  0  0  0  0  0  0  0  0  0
   -7.4713    1.4704  -22.1536 C   0  0  0  0  0  0  0  0  0  0  0  0
   -7.7225    0.4551  -21.0784 O   0  0  0  0  0  0  0  0  0  0  0  0
   -8.4269    1.8544  -23.2443 N   0  0  0  0  0  0  0  0  0  0  0  0
   -7.7665    2.9012  -24.0917 C   0  0  0  0  0  0  0  0  0  0  0  0
   -6.4029    3.1642  -23.5248 C   0  0  0  0  0  0  0  0  0  0  0  0
   -5.3982    4.1401  -24.0615 C   0  0  0  0  0  0  0  0  0  0  0  0
   -5.7233    4.9606  -25.2744 F   0  0  0  0  0  0  0  0  0  0  0  0
   -9.8014    1.2906  -23.4512 C   0  0  0  0  0  0  0  0  0  0  0  0
   -9.9910   -0.1908  -23.5919 C   0  0  0  0  0  0  0  0  0  0  0  0
  -11.3656   -0.7546  -23.7988 N   0  0  0  0  0  0  0  0  0  0  0  0
  -12.5504    0.1629  -23.8650 C   0  0  0  0  0  0  0  0  0  0  0  0
  -12.3608    1.6442  -23.7243 C   0  0  0  0  0  0  0  0  0  0  0  0
  -13.5456    2.5617  -23.7905 C   0  0  0  0  0  0  0  0  0  0  0  0
  -13.3559    4.0430  -23.6498 C   0  0  0  0  0  0  0  0  0  0  0  0
  -11.9814    4.6068  -23.4429 C   0  0  0  0  0  0  0  0  0  0  0  0
  -10.7966    3.6894  -23.3767 C   0  0  0  0  0  0  0  0  0  0  0  0
  -10.9863    2.2081  -23.5174 C   0  0  0  0  0  0  0  0  0  0  0  0
   -4.7904    0.3020  -18.9828 C   0  0  0  0  0  0  0  0  0  0  0  0
   -5.7972   -2.8887  -21.1172 C   0  0  0  0  0  0  0  0  0  0  0  0
   -5.2606   -1.5344  -20.7594 N   0  0  0  0  0  0  0  0  0  0  0  0
   -5.3270   -1.0522  -19.3406 C   0  0  0  0  0  0  0  0  0  0  0  0
   -5.9300   -1.9244  -18.2795 O   0  0  0  0  0  0  0  0  0  0  0  0
   -4.8649   -0.9620  -21.4558 H   0  0  0  0  0  0  0  0  0  0  0  0
 31 32  1  0  0  0
 32 33  1  0  0  0
 33 34  2  0  0  0
 33 30  1  0  0  0
 30  1  1  0  0  0
  1  2  1  0  0  0
  2  3  2  0  0  0
  2  4  1  0  0  0
  4  5  2  0  0  0
  5  6  1  0  0  0
  6  7  2  0  0  0
  7  8  1  0  0  0
  7  9  1  0  0  0
 10  9  1  0  0  0
 10 11  1  0  0  0
 11 12  1  0  0  0
 12 13  1  0  0  0
 13 14  2  0  0  0
 13 15  1  0  0  0
 15 20  1  0  0  0
 20 21  2  0  0  0
 21 22  1  0  0  0
 22 23  2  0  0  0
 23 24  1  0  0  0
 24 25  2  0  0  0
 25 26  1  0  0  0
 26 27  2  0  0  0
 27 28  1  0  0  0
 28 29  2  0  0  0
 15 16  1  0  0  0
 16 17  1  0  0  0
 17 18  2  0  0  0
 18 19  1  0  0  0
 11  1  1  0  0  0
 17 12  1  0  0  0
 10  4  1  0  0  0
 29 20  1  0  0  0
 12 10  1  0  0  0
 29 24  1  0  0  0
 32 35  1  0  0  0
M  END
> <minimizedAffinity>
-8.57747

> <CNNscore>
0.3987733722

> <CNNaffinity>
6.1238861084

> <CNN_VS>
2.4420428276

> <CNNaffinity_variance>
0.2022643089

$$$$



 35 40  0  0  0  0  0  0  0  0999 V2000
   -4.2830    0.7559  -21.0441 N   0  0  0  0  0  0  0  0  0  0  0  0
   -2.9356    0.8575  -21.6954 C   0  0  0  0  0  0  0  0  0  0  0  0
   -1.6337    1.1077  -20.9936 O   0  0  0  0  0  0  0  0  0  0  0  0
   -3.1186    0.6649  -23.1717 C   0  0  0  0  0  0  0  0  0  0  0  0
   -2.1440    0.6619  -24.3119 C   0  0  0  0  0  0  0  0  0  0  0  0
   -2.6299    0.4383  -25.7132 C   0  0  0  0  0  0  0  0  0  0  0  0
   -4.0904    0.2177  -25.9744 C   0  0  0  0  0  0  0  0  0  0  0  0
   -4.5764   -0.0059  -27.3758 Cl  0  0  0  0  0  0  0  0  0  0  0  0
   -5.0650    0.2207  -24.8342 C   0  0  0  0  0  0  0  0  0  0  0  0
   -4.5791    0.4443  -23.4328 C   0  0  0  0  0  0  0  0  0  0  0  0
   -5.2987    0.5005  -22.1179 C   0  0  0  0  0  0  0  0  0  0  0  0
   -6.0663    0.2556  -23.3831 C   0  0  0  0  0  0  0  0  0  0  0  0
   -7.4137    0.1540  -22.7318 C   0  0  0  0  0  0  0  0  0  0  0  0
   -7.6959    0.2848  -21.2644 O   0  0  0  0  0  0  0  0  0  0  0  0
   -8.4296   -0.1014  -23.8056 N   0  0  0  0  0  0  0  0  0  0  0  0
   -7.7098   -0.1576  -25.1205 C   0  0  0  0  0  0  0  0  0  0  0  0
   -6.2493    0.0631  -24.8594 C   0  0  0  0  0  0  0  0  0  0  0  0
   -5.1627    0.0869  -25.8931 C   0  0  0  0  0  0  0  0  0  0  0  0
   -5.4990   -0.1223  -27.3398 F   0  0  0  0  0  0  0  0  0  0  0  0
   -9.9058   -0.2708  -23.6006 C   0  0  0  0  0  0  0  0  0  0  0  0
  -10.4688   -1.6254  -23.2871 C   0  0  0  0  0  0  0  0  0  0  0  0
  -11.9450   -1.7948  -23.0820 N   0  0  0  0  0  0  0  0  0  0  0  0
  -12.8582   -0.6097  -23.1904 C   0  0  0  0  0  0  0  0  0  0  0  0
  -12.2952    0.7448  -23.5039 C   0  0  0  0  0  0  0  0  0  0  0  0
  -13.2083    1.9298  -23.6122 C   0  0  0  0  0  0  0  0  0  0  0  0
  -12.6452    3.2844  -23.9257 C   0  0  0  0  0  0  0  0  0  0  0  0
  -11.1690    3.4538  -24.1308 C   0  0  0  0  0  0  0  0  0  0  0  0
  -10.2558    2.2688  -24.0224 C   0  0  0  0  0  0  0  0  0  0  0  0
  -10.8189    0.9143  -23.7089 C   0  0  0  0  0  0  0  0  0  0  0  0
   -4.5651    0.8867  -19.5767 C   0  0  0  0  0  0  0  0  0  0  0  0
   -5.8661   -2.7477  -18.6554 C   0  0  0  0  0  0  0  0  0  0  0  0
   -5.1948   -1.6272  -19.3930 N   0  0  0  0  0  0  0  0  0  0  0  0
   -5.2363   -0.2338  -18.8392 C   0  0  0  0  0  0  0  0  0  0  0  0
   -5.9491    0.0391  -17.5478 O   0  0  0  0  0  0  0  0  0  0  0  0
   -4.7270   -1.8064  -20.2405 H   0  0  0  0  0  0  0  0  0  0  0  0
 31 32  1  0  0  0
 32 33  1  0  0  0
 33 34  2  0  0  0
 33 30  1  0  0  0
 30  1  1  0  0  0
  1  2  1  0  0  0
  2  3  2  0  0  0
  2  4  1  0  0  0
  4  5  2  0  0  0
  5  6  1  0  0  0
  6  7  2  0  0  0
  7  8  1  0  0  0
  7  9  1  0  0  0
 10  9  1  0  0  0
 10 11  1  0  0  0
 11 12  1  0  0  0
 12 13  1  0  0  0
 13 14  2  0  0  0
 13 15  1  0  0  0
 15 20  1  0  0  0
 20 21  2  0  0  0
 21 22  1  0  0  0
 22 23  2  0  0  0
 23 24  1  0  0  0
 24 25  2  0  0  0
 25 26  1  0  0  0
 26 27  2  0  0  0
 27 28  1  0  0  0
 28 29  2  0  0  0
 15 16  1  0  0  0
 16 17  1  0  0  0
 17 18  2  0  0  0
 18 19  1  0  0  0
 11  1  1  0  0  0
 17 12  1  0  0  0
 10  4  1  0  0  0
 29 20  1  0  0  0
 12 10  1  0  0  0
 29 24  1  0  0  0
 32 35  1  0  0  0
M  END
> <minimizedAffinity>
-8.02443

> <CNNscore>
0.3783521354

> <CNNaffinity>
5.9957580566

> <CNN_VS>
2.2685079575

> <CNNaffinity_variance>
0.1873939931

$$$$



 35 40  0  0  0  0  0  0  0  0999 V2000
   -6.4028   -1.7303  -20.0612 N   0  0  0  0  0  0  0  0  0  0  0  0
   -5.7662   -3.0829  -20.1845 C   0  0  0  0  0  0  0  0  0  0  0  0
   -4.9572   -3.7761  -19.1285 O   0  0  0  0  0  0  0  0  0  0  0  0
   -6.0806   -3.6207  -21.5490 C   0  0  0  0  0  0  0  0  0  0  0  0
   -5.7176   -4.9075  -22.2288 C   0  0  0  0  0  0  0  0  0  0  0  0
   -6.1856   -5.1741  -23.6287 C   0  0  0  0  0  0  0  0  0  0  0  0
   -7.0165   -4.1539  -24.3489 C   0  0  0  0  0  0  0  0  0  0  0  0
   -7.4844   -4.4205  -25.7489 Cl  0  0  0  0  0  0  0  0  0  0  0  0
   -7.3795   -2.8670  -23.6691 C   0  0  0  0  0  0  0  0  0  0  0  0
   -6.9115   -2.6004  -22.2691 C   0  0  0  0  0  0  0  0  0  0  0  0
   -7.1107   -1.4321  -21.3497 C   0  0  0  0  0  0  0  0  0  0  0  0
   -7.7117   -1.4159  -22.7239 C   0  0  0  0  0  0  0  0  0  0  0  0
   -8.3483   -0.0633  -22.6006 C   0  0  0  0  0  0  0  0  0  0  0  0
   -8.2877    0.8336  -21.3999 O   0  0  0  0  0  0  0  0  0  0  0  0
   -9.0562    0.2349  -23.8891 N   0  0  0  0  0  0  0  0  0  0  0  0
   -8.8570   -0.9334  -24.8086 C   0  0  0  0  0  0  0  0  0  0  0  0
   -8.0261   -1.9537  -24.0884 C   0  0  0  0  0  0  0  0  0  0  0  0
   -7.5867   -3.2790  -24.6366 C   0  0  0  0  0  0  0  0  0  0  0  0
   -7.9801   -3.6834  -26.0264 F   0  0  0  0  0  0  0  0  0  0  0  0
   -9.8277    1.4824  -24.2030 C   0  0  0  0  0  0  0  0  0  0  0  0
  -11.0500    1.8289  -23.4053 C   0  0  0  0  0  0  0  0  0  0  0  0
  -11.8215    3.0764  -23.7192 N   0  0  0  0  0  0  0  0  0  0  0  0
  -11.3709    3.9773  -24.8306 C   0  0  0  0  0  0  0  0  0  0  0  0
  -10.1487    3.6308  -25.6282 C   0  0  0  0  0  0  0  0  0  0  0  0
   -9.6981    4.5317  -26.7396 C   0  0  0  0  0  0  0  0  0  0  0  0
   -8.4758    4.1851  -27.5372 C   0  0  0  0  0  0  0  0  0  0  0  0
   -7.7043    2.9377  -27.2234 C   0  0  0  0  0  0  0  0  0  0  0  0
   -8.1549    2.0367  -26.1119 C   0  0  0  0  0  0  0  0  0  0  0  0
   -9.3771    2.3833  -25.3144 C   0  0  0  0  0  0  0  0  0  0  0  0
   -6.3422   -0.8334  -18.8605 C   0  0  0  0  0  0  0  0  0  0  0  0
   -3.2200    1.4397  -19.7743 C   0  0  0  0  0  0  0  0  0  0  0  0
   -4.3018    0.4064  -19.8849 N   0  0  0  0  0  0  0  0  0  0  0  0
   -5.2604    0.1998  -18.7499 C   0  0  0  0  0  0  0  0  0  0  0  0
   -5.1373    1.0265  -17.5042 O   0  0  0  0  0  0  0  0  0  0  0  0
   -4.3826   -0.1361  -20.7025 H   0  0  0  0  0  0  0  0  0  0  0  0
 31 32  1  0  0  0
 32 33  1  0  0  0
 33 34  2  0  0  0
 33 30  1  0  0  0
 30  1  1  0  0  0
  1  2  1  0  0  0
  2  3  2  0  0  0
  2  4  1  0  0  0
  4  5  2  0  0  0
  5  6  1  0  0  0
  6  7  2  0  0  0
  7  8  1  0  0  0
  7  9  1  0  0  0
 10  9  1  0  0  0
 10 11  1  0  0  0
 11 12  1  0  0  0
 12 13  1  0  0  0
 13 14  2  0  0  0
 13 15  1  0  0  0
 15 20  1  0  0  0
 20 21  2  0  0  0
 21 22  1  0  0  0
 22 23  2  0  0  0
 23 24  1  0  0  0
 24 25  2  0  0  0
 25 26  1  0  0  0
 26 27  2  0  0  0
 27 28  1  0  0  0
 28 29  2  0  0  0
 15 16  1  0  0  0
 16 17  1  0  0  0
 17 18  2  0  0  0
 18 19  1  0  0  0
 11  1  1  0  0  0
 17 12  1  0  0  0
 10  4  1  0  0  0
 29 20  1  0  0  0
 12 10  1  0  0  0
 29 24  1  0  0  0
 32 35  1  0  0  0
M  END
> <minimizedAffinity>
-8.20937

> <CNNscore>
0.3661839664

> <CNNaffinity>
6.2126421928

> <CNN_VS>
2.2749700546

> <CNNaffinity_variance>
0.0731242225

$$$$
