


 34 39  0  0  0  0  0  0  0  0999 V2000
   -5.9352   -5.4689  -22.9498 C   0  0  0  0  0  0  0  0  0  0  0  0
   -6.4473   -4.1302  -22.5073 C   0  0  0  0  0  0  0  0  0  0  0  0
   -5.5940   -3.5307  -21.4290 C   0  0  0  0  0  0  0  0  0  0  0  0
   -6.1834   -2.2027  -21.0562 N   0  0  0  0  0  0  0  0  0  0  0  0
   -7.4009   -1.9815  -21.9040 C   0  0  0  0  0  0  0  0  0  0  0  0
   -8.2979   -0.7800  -21.8623 O   0  0  0  0  0  0  0  0  0  0  0  0
   -7.5640   -3.1728  -22.8008 C   0  0  0  0  0  0  0  0  0  0  0  0
   -8.6188   -2.1222  -22.9842 C   0  0  0  0  0  0  0  0  0  0  0  0
   -9.7074   -2.3211  -23.9968 N   0  0  0  0  0  0  0  0  0  0  0  0
   -9.7413   -3.5706  -24.8259 C   0  0  0  0  0  0  0  0  0  0  0  0
  -10.8300   -3.7695  -25.8385 O   0  0  0  0  0  0  0  0  0  0  0  0
   -8.6865   -4.6213  -24.6425 C   0  0  0  0  0  0  0  0  0  0  0  0
   -8.7204   -5.8708  -25.4717 C   0  0  0  0  0  0  0  0  0  0  0  0
   -7.6657   -6.9214  -25.2883 C   0  0  0  0  0  0  0  0  0  0  0  0
   -6.5770   -6.7225  -24.2758 C   0  0  0  0  0  0  0  0  0  0  0  0
   -5.5222   -7.7731  -24.0924 F   0  0  0  0  0  0  0  0  0  0  0  0
   -6.5431   -5.4730  -23.4466 C   0  0  0  0  0  0  0  0  0  0  0  0
   -7.5979   -4.4224  -23.6300 C   0  0  0  0  0  0  0  0  0  0  0  0
   -5.6492   -1.2612  -20.0179 C   0  0  0  0  0  0  0  0  0  0  0  0
   -6.0860   -1.3941  -18.5892 C   0  0  0  0  0  0  0  0  0  0  0  0
   -5.5517   -0.4526  -17.5508 N   0  0  0  0  0  0  0  0  0  0  0  0
   -4.5806    0.6219  -17.9414 C   0  0  0  0  0  0  0  0  0  0  0  0
   -4.1438    0.7548  -19.3702 C   0  0  0  0  0  0  0  0  0  0  0  0
   -3.1726    1.8293  -19.7607 C   0  0  0  0  0  0  0  0  0  0  0  0
   -2.7358    1.9621  -21.1895 C   0  0  0  0  0  0  0  0  0  0  0  0
   -3.2701    1.0206  -22.2277 C   0  0  0  0  0  0  0  0  0  0  0  0
   -4.2412   -0.0538  -21.8372 C   0  0  0  0  0  0  0  0  0  0  0  0
   -4.6780   -0.1867  -20.4085 C   0  0  0  0  0  0  0  0  0  0  0  0
  -10.7622   -1.2704  -24.1801 C   0  0  0  0  0  0  0  0  0  0  0  0
  -12.1016   -1.4298  -23.5240 C   0  0  0  0  0  0  0  0  0  0  0  0
  -12.4881   -2.5123  -22.5603 C   0  0  0  0  0  0  0  0  0  0  0  0
  -13.9150   -2.2862  -22.1570 C   0  0  0  0  0  0  0  0  0  0  0  0
  -14.4106   -1.0639  -22.8715 O   0  0  0  0  0  0  0  0  0  0  0  0
  -13.2898   -0.5346  -23.7164 N   0  0  0  0  0  0  0  0  0  0  0  0
  2  1  1  0  0  0
  2  3  1  0  0  0
  3  4  1  0  0  0
  4 19  1  0  0  0
 19 20  2  0  0  0
 20 21  1  0  0  0
 21 22  2  0  0  0
 22 23  1  0  0  0
 23 24  2  0  0  0
 24 25  1  0  0  0
 25 26  2  0  0  0
 26 27  1  0  0  0
 27 28  2  0  0  0
  4  5  1  0  0  0
  5  6  2  0  0  0
  5  7  1  0  0  0
  7  8  1  0  0  0
  8  9  1  0  0  0
  9 29  1  0  0  0
 29 30  1  0  0  0
 30 31  1  0  0  0
 31 32  2  0  0  0
 32 33  1  0  0  0
 33 34  1  0  0  0
  9 10  1  0  0  0
 10 11  2  0  0  0
 10 12  1  0  0  0
 12 13  2  0  0  0
 13 14  1  0  0  0
 14 15  2  0  0  0
 15 16  1  0  0  0
 15 17  1  0  0  0
 17 18  2  0  0  0
  7  2  1  0  0  0
 34 30  2  0  0  0
 18 12  1  0  0  0
 28 19  1  0  0  0
 18  7  1  0  0  0
 28 23  1  0  0  0
M  END
> <minimizedAffinity>
-9.03800

> <CNNscore>
0.6743107438

> <CNNaffinity>
6.5939893723

> <CNN_VS>
4.4463977814

> <CNNaffinity_variance>
0.0912629142

$$$$



 34 39  0  0  0  0  0  0  0  0999 V2000
  -10.9607   -2.7425  -24.5912 C   0  0  0  0  0  0  0  0  0  0  0  0
  -10.5215   -1.4498  -23.9697 C   0  0  0  0  0  0  0  0  0  0  0  0
  -11.5967   -0.4054  -24.0260 C   0  0  0  0  0  0  0  0  0  0  0  0
  -11.0653    0.8419  -23.3843 N   0  0  0  0  0  0  0  0  0  0  0  0
   -9.6617    0.5684  -22.9315 C   0  0  0  0  0  0  0  0  0  0  0  0
   -8.7536    1.5406  -22.2385 O   0  0  0  0  0  0  0  0  0  0  0  0
   -9.3256   -0.8480  -23.2933 C   0  0  0  0  0  0  0  0  0  0  0  0
   -8.2138   -0.1142  -22.6038 C   0  0  0  0  0  0  0  0  0  0  0  0
   -6.9106   -0.8071  -22.3362 N   0  0  0  0  0  0  0  0  0  0  0  0
   -6.7192   -2.2337  -22.7580 C   0  0  0  0  0  0  0  0  0  0  0  0
   -5.4160   -2.9266  -22.4904 O   0  0  0  0  0  0  0  0  0  0  0  0
   -7.8310   -2.9676  -23.4476 C   0  0  0  0  0  0  0  0  0  0  0  0
   -7.6396   -4.3942  -23.8694 C   0  0  0  0  0  0  0  0  0  0  0  0
   -8.7514   -5.1280  -24.5589 C   0  0  0  0  0  0  0  0  0  0  0  0
  -10.0546   -4.4351  -24.8266 C   0  0  0  0  0  0  0  0  0  0  0  0
  -11.1664   -5.1690  -25.5161 F   0  0  0  0  0  0  0  0  0  0  0  0
  -10.2460   -3.0085  -24.4047 C   0  0  0  0  0  0  0  0  0  0  0  0
   -9.1342   -2.2747  -23.7152 C   0  0  0  0  0  0  0  0  0  0  0  0
  -11.8073    2.1356  -23.2237 C   0  0  0  0  0  0  0  0  0  0  0  0
  -12.9371    2.2354  -22.2422 C   0  0  0  0  0  0  0  0  0  0  0  0
  -13.6790    3.5291  -22.0816 N   0  0  0  0  0  0  0  0  0  0  0  0
  -13.2910    4.7231  -22.9024 C   0  0  0  0  0  0  0  0  0  0  0  0
  -12.1611    4.6233  -23.8839 C   0  0  0  0  0  0  0  0  0  0  0  0
  -11.7731    5.8174  -24.7048 C   0  0  0  0  0  0  0  0  0  0  0  0
  -10.6432    5.7176  -25.6863 C   0  0  0  0  0  0  0  0  0  0  0  0
   -9.9013    4.4239  -25.8469 C   0  0  0  0  0  0  0  0  0  0  0  0
  -10.2893    3.2299  -25.0261 C   0  0  0  0  0  0  0  0  0  0  0  0
  -11.4192    3.3296  -24.0446 C   0  0  0  0  0  0  0  0  0  0  0  0
   -5.7988   -0.0732  -21.6466 C   0  0  0  0  0  0  0  0  0  0  0  0
   -5.7601   -0.0063  -20.1486 C   0  0  0  0  0  0  0  0  0  0  0  0
   -4.6090    0.4770  -19.3171 C   0  0  0  0  0  0  0  0  0  0  0  0
   -5.0032    0.3710  -17.8737 C   0  0  0  0  0  0  0  0  0  0  0  0
   -6.3979   -0.1778  -17.8132 O   0  0  0  0  0  0  0  0  0  0  0  0
   -6.8656   -0.4110  -19.2191 N   0  0  0  0  0  0  0  0  0  0  0  0
  2  1  1  0  0  0
  2  3  1  0  0  0
  3  4  1  0  0  0
  4 19  1  0  0  0
 19 20  2  0  0  0
 20 21  1  0  0  0
 21 22  2  0  0  0
 22 23  1  0  0  0
 23 24  2  0  0  0
 24 25  1  0  0  0
 25 26  2  0  0  0
 26 27  1  0  0  0
 27 28  2  0  0  0
  4  5  1  0  0  0
  5  6  2  0  0  0
  5  7  1  0  0  0
  7  8  1  0  0  0
  8  9  1  0  0  0
  9 29  1  0  0  0
 29 30  1  0  0  0
 30 31  1  0  0  0
 31 32  2  0  0  0
 32 33  1  0  0  0
 33 34  1  0  0  0
  9 10  1  0  0  0
 10 11  2  0  0  0
 10 12  1  0  0  0
 12 13  2  0  0  0
 13 14  1  0  0  0
 14 15  2  0  0  0
 15 16  1  0  0  0
 15 17  1  0  0  0
 17 18  2  0  0  0
  7  2  1  0  0  0
 34 30  2  0  0  0
 18 12  1  0  0  0
 28 19  1  0  0  0
 18  7  1  0  0  0
 28 23  1  0  0  0
M  END
> <minimizedAffinity>
-8.40452

> <CNNscore>
0.6689206362

> <CNNaffinity>
6.7090020180

> <CNN_VS>
4.4877901077

> <CNNaffinity_variance>
0.0609009862

$$$$



 34 39  0  0  0  0  0  0  0  0999 V2000
   -7.3145   -0.1959  -21.2760 C   0  0  0  0  0  0  0  0  0  0  0  0
   -8.5324   -0.2916  -22.1465 C   0  0  0  0  0  0  0  0  0  0  0  0
   -9.2986    0.9973  -22.1844 C   0  0  0  0  0  0  0  0  0  0  0  0
  -10.4902    0.8022  -23.0744 N   0  0  0  0  0  0  0  0  0  0  0  0
  -10.4603   -0.6074  -23.5865 C   0  0  0  0  0  0  0  0  0  0  0  0
  -11.4643   -1.2313  -24.5100 O   0  0  0  0  0  0  0  0  0  0  0  0
   -9.2503   -1.2834  -23.0131 C   0  0  0  0  0  0  0  0  0  0  0  0
  -10.0730   -2.1617  -23.9084 C   0  0  0  0  0  0  0  0  0  0  0  0
   -9.6544   -3.5804  -24.1577 N   0  0  0  0  0  0  0  0  0  0  0  0
   -8.4133   -4.1208  -23.5117 C   0  0  0  0  0  0  0  0  0  0  0  0
   -7.9947   -5.5395  -23.7610 O   0  0  0  0  0  0  0  0  0  0  0  0
   -7.5906   -3.2424  -22.6162 C   0  0  0  0  0  0  0  0  0  0  0  0
   -6.3494   -3.7828  -21.9701 C   0  0  0  0  0  0  0  0  0  0  0  0
   -5.5268   -2.9045  -21.0747 C   0  0  0  0  0  0  0  0  0  0  0  0
   -5.9453   -1.4858  -20.8254 C   0  0  0  0  0  0  0  0  0  0  0  0
   -5.1226   -0.6074  -19.9300 F   0  0  0  0  0  0  0  0  0  0  0  0
   -7.1865   -0.9454  -21.4715 C   0  0  0  0  0  0  0  0  0  0  0  0
   -8.0091   -1.8238  -22.3669 C   0  0  0  0  0  0  0  0  0  0  0  0
  -11.5292    1.8352  -23.3959 C   0  0  0  0  0  0  0  0  0  0  0  0
  -12.9409    1.6513  -22.9236 C   0  0  0  0  0  0  0  0  0  0  0  0
  -13.9799    2.6843  -23.2451 N   0  0  0  0  0  0  0  0  0  0  0  0
  -13.6071    3.9013  -24.0388 C   0  0  0  0  0  0  0  0  0  0  0  0
  -12.1953    4.0852  -24.5110 C   0  0  0  0  0  0  0  0  0  0  0  0
  -11.8225    5.3022  -25.3048 C   0  0  0  0  0  0  0  0  0  0  0  0
  -10.4107    5.4861  -25.7770 C   0  0  0  0  0  0  0  0  0  0  0  0
   -9.3718    4.4531  -25.4555 C   0  0  0  0  0  0  0  0  0  0  0  0
   -9.7446    3.2361  -24.6618 C   0  0  0  0  0  0  0  0  0  0  0  0
  -11.1563    3.0522  -24.1896 C   0  0  0  0  0  0  0  0  0  0  0  0
  -10.4772   -4.4588  -25.0532 C   0  0  0  0  0  0  0  0  0  0  0  0
   -9.8580   -5.0781  -26.2709 C   0  0  0  0  0  0  0  0  0  0  0  0
   -9.5061   -6.5263  -26.4414 C   0  0  0  0  0  0  0  0  0  0  0  0
   -8.9126   -6.7013  -27.8078 C   0  0  0  0  0  0  0  0  0  0  0  0
   -8.8977   -5.3613  -28.4819 O   0  0  0  0  0  0  0  0  0  0  0  0
   -9.4820   -4.3582  -27.5320 N   0  0  0  0  0  0  0  0  0  0  0  0
  2  1  1  0  0  0
  2  3  1  0  0  0
  3  4  1  0  0  0
  4 19  1  0  0  0
 19 20  2  0  0  0
 20 21  1  0  0  0
 21 22  2  0  0  0
 22 23  1  0  0  0
 23 24  2  0  0  0
 24 25  1  0  0  0
 25 26  2  0  0  0
 26 27  1  0  0  0
 27 28  2  0  0  0
  4  5  1  0  0  0
  5  6  2  0  0  0
  5  7  1  0  0  0
  7  8  1  0  0  0
  8  9  1  0  0  0
  9 29  1  0  0  0
 29 30  1  0  0  0
 30 31  1  0  0  0
 31 32  2  0  0  0
 32 33  1  0  0  0
 33 34  1  0  0  0
  9 10  1  0  0  0
 10 11  2  0  0  0
 10 12  1  0  0  0
 12 13  2  0  0  0
 13 14  1  0  0  0
 14 15  2  0  0  0
 15 16  1  0  0  0
 15 17  1  0  0  0
 17 18  2  0  0  0
  7  2  1  0  0  0
 34 30  2  0  0  0
 18 12  1  0  0  0
 28 19  1  0  0  0
 18  7  1  0  0  0
 28 23  1  0  0  0
M  END
> <minimizedAffinity>
-9.27859

> <CNNscore>
0.5881572962

> <CNNaffinity>
6.3355412483

> <CNN_VS>
3.7262947559

> <CNNaffinity_variance>
0.1848569810

$$$$



 34 39  0  0  0  0  0  0  0  0999 V2000
   -9.5170   -2.5390  -23.7201 C   0  0  0  0  0  0  0  0  0  0  0  0
   -8.2700   -2.7535  -22.9146 C   0  0  0  0  0  0  0  0  0  0  0  0
   -8.0110   -1.6196  -21.9673 C   0  0  0  0  0  0  0  0  0  0  0  0
   -6.7514   -1.9249  -21.2122 N   0  0  0  0  0  0  0  0  0  0  0  0
   -6.2318   -3.2475  -21.6929 C   0  0  0  0  0  0  0  0  0  0  0  0
   -4.9915   -3.9369  -21.2068 O   0  0  0  0  0  0  0  0  0  0  0  0
   -7.1704   -3.7595  -22.7450 C   0  0  0  0  0  0  0  0  0  0  0  0
   -6.0110   -4.6696  -22.4665 C   0  0  0  0  0  0  0  0  0  0  0  0
   -5.8740   -5.9610  -23.2173 N   0  0  0  0  0  0  0  0  0  0  0  0
   -6.8964   -6.3423  -24.2465 C   0  0  0  0  0  0  0  0  0  0  0  0
   -6.7594   -7.6336  -24.9972 O   0  0  0  0  0  0  0  0  0  0  0  0
   -8.0558   -5.4322  -24.5250 C   0  0  0  0  0  0  0  0  0  0  0  0
   -9.0782   -5.8135  -25.5543 C   0  0  0  0  0  0  0  0  0  0  0  0
  -10.2375   -4.9034  -25.8328 C   0  0  0  0  0  0  0  0  0  0  0  0
  -10.3745   -3.6120  -25.0820 C   0  0  0  0  0  0  0  0  0  0  0  0
  -11.5340   -2.7019  -25.3606 F   0  0  0  0  0  0  0  0  0  0  0  0
   -9.3522   -3.2307  -24.0528 C   0  0  0  0  0  0  0  0  0  0  0  0
   -8.1928   -4.1408  -23.7743 C   0  0  0  0  0  0  0  0  0  0  0  0
   -6.1218   -1.0597  -20.1611 C   0  0  0  0  0  0  0  0  0  0  0  0
   -6.6714   -1.0551  -18.7655 C   0  0  0  0  0  0  0  0  0  0  0  0
   -6.0418   -0.1898  -17.7143 N   0  0  0  0  0  0  0  0  0  0  0  0
   -4.8626    0.6708  -18.0589 C   0  0  0  0  0  0  0  0  0  0  0  0
   -4.3130    0.6662  -19.4546 C   0  0  0  0  0  0  0  0  0  0  0  0
   -3.1337    1.5270  -19.7991 C   0  0  0  0  0  0  0  0  0  0  0  0
   -2.5842    1.5223  -21.1948 C   0  0  0  0  0  0  0  0  0  0  0  0
   -3.2138    0.6570  -22.2459 C   0  0  0  0  0  0  0  0  0  0  0  0
   -4.3930   -0.2036  -21.9013 C   0  0  0  0  0  0  0  0  0  0  0  0
   -4.9426   -0.1990  -20.5057 C   0  0  0  0  0  0  0  0  0  0  0  0
   -4.7146   -6.8711  -22.9387 C   0  0  0  0  0  0  0  0  0  0  0  0
   -3.4523   -6.7441  -23.7391 C   0  0  0  0  0  0  0  0  0  0  0  0
   -2.0823   -7.1661  -23.2977 C   0  0  0  0  0  0  0  0  0  0  0  0
   -1.1217   -6.8557  -24.4071 C   0  0  0  0  0  0  0  0  0  0  0  0
   -1.8981   -6.2419  -25.5344 O   0  0  0  0  0  0  0  0  0  0  0  0
   -3.3385   -6.1730  -25.1214 N   0  0  0  0  0  0  0  0  0  0  0  0
  2  1  1  0  0  0
  2  3  1  0  0  0
  3  4  1  0  0  0
  4 19  1  0  0  0
 19 20  2  0  0  0
 20 21  1  0  0  0
 21 22  2  0  0  0
 22 23  1  0  0  0
 23 24  2  0  0  0
 24 25  1  0  0  0
 25 26  2  0  0  0
 26 27  1  0  0  0
 27 28  2  0  0  0
  4  5  1  0  0  0
  5  6  2  0  0  0
  5  7  1  0  0  0
  7  8  1  0  0  0
  8  9  1  0  0  0
  9 29  1  0  0  0
 29 30  1  0  0  0
 30 31  1  0  0  0
 31 32  2  0  0  0
 32 33  1  0  0  0
 33 34  1  0  0  0
  9 10  1  0  0  0
 10 11  2  0  0  0
 10 12  1  0  0  0
 12 13  2  0  0  0
 13 14  1  0  0  0
 14 15  2  0  0  0
 15 16  1  0  0  0
 15 17  1  0  0  0
 17 18  2  0  0  0
  7  2  1  0  0  0
 34 30  2  0  0  0
 18 12  1  0  0  0
 28 19  1  0  0  0
 18  7  1  0  0  0
 28 23  1  0  0  0
M  END
> <minimizedAffinity>
-8.38524

> <CNNscore>
0.5597226620

> <CNNaffinity>
6.4847807884

> <CNN_VS>
3.6296787262

> <CNNaffinity_variance>
0.0823214501

$$$$



 34 39  0  0  0  0  0  0  0  0999 V2000
  -10.2383   -4.2926  -25.3297 C   0  0  0  0  0  0  0  0  0  0  0  0
   -9.7510   -3.1485  -24.4908 C   0  0  0  0  0  0  0  0  0  0  0  0
  -10.5943   -1.9210  -24.6704 C   0  0  0  0  0  0  0  0  0  0  0  0
  -10.0310   -0.8398  -23.7965 N   0  0  0  0  0  0  0  0  0  0  0  0
   -8.8397   -1.3991  -23.0768 C   0  0  0  0  0  0  0  0  0  0  0  0
   -7.9735   -0.6611  -22.0995 O   0  0  0  0  0  0  0  0  0  0  0  0
   -8.6666   -2.8260  -23.5059 C   0  0  0  0  0  0  0  0  0  0  0  0
   -7.6440   -2.3593  -22.5127 C   0  0  0  0  0  0  0  0  0  0  0  0
   -6.5744   -3.2987  -22.0399 N   0  0  0  0  0  0  0  0  0  0  0  0
   -6.5274   -4.7047  -22.5604 C   0  0  0  0  0  0  0  0  0  0  0  0
   -5.4578   -5.6441  -22.0876 O   0  0  0  0  0  0  0  0  0  0  0  0
   -7.5500   -5.1714  -23.5537 C   0  0  0  0  0  0  0  0  0  0  0  0
   -7.5030   -6.5774  -24.0741 C   0  0  0  0  0  0  0  0  0  0  0  0
   -8.5256   -7.0440  -25.0674 C   0  0  0  0  0  0  0  0  0  0  0  0
   -9.5952   -6.1046  -25.5401 C   0  0  0  0  0  0  0  0  0  0  0  0
  -10.6178   -6.5713  -26.5334 F   0  0  0  0  0  0  0  0  0  0  0  0
   -9.6422   -4.6986  -25.0197 C   0  0  0  0  0  0  0  0  0  0  0  0
   -8.6196   -4.2320  -24.0264 C   0  0  0  0  0  0  0  0  0  0  0  0
  -10.5652    0.5557  -23.6652 C   0  0  0  0  0  0  0  0  0  0  0  0
  -11.6953    0.8404  -22.7210 C   0  0  0  0  0  0  0  0  0  0  0  0
  -12.2296    2.2358  -22.5897 N   0  0  0  0  0  0  0  0  0  0  0  0
  -11.6336    3.3466  -23.4028 C   0  0  0  0  0  0  0  0  0  0  0  0
  -10.5035    3.0619  -24.3471 C   0  0  0  0  0  0  0  0  0  0  0  0
   -9.9075    4.1727  -25.1602 C   0  0  0  0  0  0  0  0  0  0  0  0
   -8.7774    3.8879  -26.1044 C   0  0  0  0  0  0  0  0  0  0  0  0
   -8.2432    2.4924  -26.2356 C   0  0  0  0  0  0  0  0  0  0  0  0
   -8.8391    1.3817  -25.4226 C   0  0  0  0  0  0  0  0  0  0  0  0
   -9.9692    1.6664  -24.4783 C   0  0  0  0  0  0  0  0  0  0  0  0
   -5.5518   -2.8320  -21.0467 C   0  0  0  0  0  0  0  0  0  0  0  0
   -5.8959   -1.7474  -20.0694 C   0  0  0  0  0  0  0  0  0  0  0  0
   -5.1760   -0.4408  -19.9128 C   0  0  0  0  0  0  0  0  0  0  0  0
   -5.8554    0.3352  -18.8237 C   0  0  0  0  0  0  0  0  0  0  0  0
   -6.9954   -0.4918  -18.3072 O   0  0  0  0  0  0  0  0  0  0  0  0
   -7.0203   -1.7789  -19.0771 N   0  0  0  0  0  0  0  0  0  0  0  0
  2  1  1  0  0  0
  2  3  1  0  0  0
  3  4  1  0  0  0
  4 19  1  0  0  0
 19 20  2  0  0  0
 20 21  1  0  0  0
 21 22  2  0  0  0
 22 23  1  0  0  0
 23 24  2  0  0  0
 24 25  1  0  0  0
 25 26  2  0  0  0
 26 27  1  0  0  0
 27 28  2  0  0  0
  4  5  1  0  0  0
  5  6  2  0  0  0
  5  7  1  0  0  0
  7  8  1  0  0  0
  8  9  1  0  0  0
  9 29  1  0  0  0
 29 30  1  0  0  0
 30 31  1  0  0  0
 31 32  2  0  0  0
 32 33  1  0  0  0
 33 34  1  0  0  0
  9 10  1  0  0  0
 10 11  2  0  0  0
 10 12  1  0  0  0
 12 13  2  0  0  0
 13 14  1  0  0  0
 14 15  2  0  0  0
 15 16  1  0  0  0
 15 17  1  0  0  0
 17 18  2  0  0  0
  7  2  1  0  0  0
 34 30  2  0  0  0
 18 12  1  0  0  0
 28 19  1  0  0  0
 18  7  1  0  0  0
 28 23  1  0  0  0
M  END
> <minimizedAffinity>
-8.06667

> <CNNscore>
0.5179131031

> <CNNaffinity>
6.6194329262

> <CNN_VS>
3.4282910824

> <CNNaffinity_variance>
0.2491723597

$$$$



 34 39  0  0  0  0  0  0  0  0999 V2000
   -9.2459   -3.9322  -25.2706 C   0  0  0  0  0  0  0  0  0  0  0  0
   -8.7444   -2.7714  -24.4636 C   0  0  0  0  0  0  0  0  0  0  0  0
   -9.3651   -1.4763  -24.8964 C   0  0  0  0  0  0  0  0  0  0  0  0
   -8.8041   -0.3831  -24.0361 N   0  0  0  0  0  0  0  0  0  0  0  0
   -7.8365   -1.0026  -23.0717 C   0  0  0  0  0  0  0  0  0  0  0  0
   -7.0449   -0.2739  -22.0265 O   0  0  0  0  0  0  0  0  0  0  0  0
   -7.7996   -2.4787  -23.3359 C   0  0  0  0  0  0  0  0  0  0  0  0
   -6.8962   -2.0352  -22.2236 C   0  0  0  0  0  0  0  0  0  0  0  0
   -6.0612   -3.0418  -21.4891 N   0  0  0  0  0  0  0  0  0  0  0  0
   -6.1296   -4.4918  -21.8669 C   0  0  0  0  0  0  0  0  0  0  0  0
   -5.2946   -5.4984  -21.1323 O   0  0  0  0  0  0  0  0  0  0  0  0
   -7.0330   -4.9353  -22.9792 C   0  0  0  0  0  0  0  0  0  0  0  0
   -7.1014   -6.3854  -23.3569 C   0  0  0  0  0  0  0  0  0  0  0  0
   -8.0048   -6.8288  -24.4692 C   0  0  0  0  0  0  0  0  0  0  0  0
   -8.8398   -5.8222  -25.2037 C   0  0  0  0  0  0  0  0  0  0  0  0
   -9.7433   -6.2657  -26.3160 F   0  0  0  0  0  0  0  0  0  0  0  0
   -8.7714   -4.3722  -24.8260 C   0  0  0  0  0  0  0  0  0  0  0  0
   -7.8680   -3.9288  -23.7137 C   0  0  0  0  0  0  0  0  0  0  0  0
   -9.1498    1.0739  -24.1247 C   0  0  0  0  0  0  0  0  0  0  0  0
   -8.0794    2.0820  -24.4209 C   0  0  0  0  0  0  0  0  0  0  0  0
   -8.4252    3.5389  -24.5095 N   0  0  0  0  0  0  0  0  0  0  0  0
   -9.8413    3.9876  -24.3018 C   0  0  0  0  0  0  0  0  0  0  0  0
  -10.9117    2.9794  -24.0055 C   0  0  0  0  0  0  0  0  0  0  0  0
  -12.3279    3.4282  -23.7977 C   0  0  0  0  0  0  0  0  0  0  0  0
  -13.3983    2.4199  -23.5015 C   0  0  0  0  0  0  0  0  0  0  0  0
  -13.0525    0.9631  -23.4129 C   0  0  0  0  0  0  0  0  0  0  0  0
  -11.6363    0.5144  -23.6207 C   0  0  0  0  0  0  0  0  0  0  0  0
  -10.5660    1.5225  -23.9169 C   0  0  0  0  0  0  0  0  0  0  0  0
   -5.1578   -2.5983  -20.3768 C   0  0  0  0  0  0  0  0  0  0  0  0
   -5.5773   -1.4789  -19.4709 C   0  0  0  0  0  0  0  0  0  0  0  0
   -4.7595   -0.2695  -19.1268 C   0  0  0  0  0  0  0  0  0  0  0  0
   -5.5651    0.5847  -18.1933 C   0  0  0  0  0  0  0  0  0  0  0  0
   -6.8810   -0.0969  -17.9605 O   0  0  0  0  0  0  0  0  0  0  0  0
   -6.8885   -1.3722  -18.7501 N   0  0  0  0  0  0  0  0  0  0  0  0
  2  1  1  0  0  0
  2  3  1  0  0  0
  3  4  1  0  0  0
  4 19  1  0  0  0
 19 20  2  0  0  0
 20 21  1  0  0  0
 21 22  2  0  0  0
 22 23  1  0  0  0
 23 24  2  0  0  0
 24 25  1  0  0  0
 25 26  2  0  0  0
 26 27  1  0  0  0
 27 28  2  0  0  0
  4  5  1  0  0  0
  5  6  2  0  0  0
  5  7  1  0  0  0
  7  8  1  0  0  0
  8  9  1  0  0  0
  9 29  1  0  0  0
 29 30  1  0  0  0
 30 31  1  0  0  0
 31 32  2  0  0  0
 32 33  1  0  0  0
 33 34  1  0  0  0
  9 10  1  0  0  0
 10 11  2  0  0  0
 10 12  1  0  0  0
 12 13  2  0  0  0
 13 14  1  0  0  0
 14 15  2  0  0  0
 15 16  1  0  0  0
 15 17  1  0  0  0
 17 18  2  0  0  0
  7  2  1  0  0  0
 34 30  2  0  0  0
 18 12  1  0  0  0
 28 19  1  0  0  0
 18  7  1  0  0  0
 28 23  1  0  0  0
M  END
> <minimizedAffinity>
-9.00856

> <CNNscore>
0.5141086578

> <CNNaffinity>
6.6151185036

> <CNN_VS>
3.4008896351

> <CNNaffinity_variance>
0.1351097822

$$$$



 34 39  0  0  0  0  0  0  0  0999 V2000
   -9.7323   -4.3943  -25.0307 C   0  0  0  0  0  0  0  0  0  0  0  0
   -9.6325   -3.1635  -24.1791 C   0  0  0  0  0  0  0  0  0  0  0  0
  -10.6984   -2.1620  -24.5121 C   0  0  0  0  0  0  0  0  0  0  0  0
  -10.5159   -0.9748  -23.6136 N   0  0  0  0  0  0  0  0  0  0  0  0
   -9.3372   -1.2427  -22.7253 C   0  0  0  0  0  0  0  0  0  0  0  0
   -8.7990   -0.3198  -21.6724 O   0  0  0  0  0  0  0  0  0  0  0  0
   -8.7912   -2.5953  -23.0749 C   0  0  0  0  0  0  0  0  0  0  0  0
   -8.0432   -1.9009  -21.9757 C   0  0  0  0  0  0  0  0  0  0  0  0
   -6.8632   -2.5682  -21.3337 N   0  0  0  0  0  0  0  0  0  0  0  0
   -6.4312   -3.9300  -21.7908 C   0  0  0  0  0  0  0  0  0  0  0  0
   -5.2512   -4.5973  -21.1487 O   0  0  0  0  0  0  0  0  0  0  0  0
   -7.1793   -4.6245  -22.8900 C   0  0  0  0  0  0  0  0  0  0  0  0
   -6.7473   -5.9862  -23.3471 C   0  0  0  0  0  0  0  0  0  0  0  0
   -7.4953   -6.6807  -24.4462 C   0  0  0  0  0  0  0  0  0  0  0  0
   -8.6754   -6.0133  -25.0883 C   0  0  0  0  0  0  0  0  0  0  0  0
   -9.4234   -6.7078  -26.1875 F   0  0  0  0  0  0  0  0  0  0  0  0
   -9.1073   -4.6516  -24.6312 C   0  0  0  0  0  0  0  0  0  0  0  0
   -8.3593   -3.9572  -23.5320 C   0  0  0  0  0  0  0  0  0  0  0  0
  -11.3633    0.2629  -23.6049 C   0  0  0  0  0  0  0  0  0  0  0  0
  -12.8108    0.1780  -23.2211 C   0  0  0  0  0  0  0  0  0  0  0  0
  -13.6581    1.4157  -23.2124 N   0  0  0  0  0  0  0  0  0  0  0  0
  -13.0579    2.7382  -23.5874 C   0  0  0  0  0  0  0  0  0  0  0  0
  -11.6103    2.8231  -23.9712 C   0  0  0  0  0  0  0  0  0  0  0  0
  -11.0101    4.1456  -24.3462 C   0  0  0  0  0  0  0  0  0  0  0  0
   -9.5624    4.2304  -24.7300 C   0  0  0  0  0  0  0  0  0  0  0  0
   -8.7152    2.9927  -24.7387 C   0  0  0  0  0  0  0  0  0  0  0  0
   -9.3154    1.6702  -24.3637 C   0  0  0  0  0  0  0  0  0  0  0  0
  -10.7629    1.5854  -23.9799 C   0  0  0  0  0  0  0  0  0  0  0  0
   -6.1151   -1.8737  -20.2345 C   0  0  0  0  0  0  0  0  0  0  0  0
   -5.0894   -0.8312  -20.5677 C   0  0  0  0  0  0  0  0  0  0  0  0
   -4.6466   -0.4390  -21.9461 C   0  0  0  0  0  0  0  0  0  0  0  0
   -3.6100    0.6368  -21.8113 C   0  0  0  0  0  0  0  0  0  0  0  0
   -3.4121    0.9094  -20.3496 O   0  0  0  0  0  0  0  0  0  0  0  0
   -4.3265    0.0021  -19.5810 N   0  0  0  0  0  0  0  0  0  0  0  0
  2  1  1  0  0  0
  2  3  1  0  0  0
  3  4  1  0  0  0
  4 19  1  0  0  0
 19 20  2  0  0  0
 20 21  1  0  0  0
 21 22  2  0  0  0
 22 23  1  0  0  0
 23 24  2  0  0  0
 24 25  1  0  0  0
 25 26  2  0  0  0
 26 27  1  0  0  0
 27 28  2  0  0  0
  4  5  1  0  0  0
  5  6  2  0  0  0
  5  7  1  0  0  0
  7  8  1  0  0  0
  8  9  1  0  0  0
  9 29  1  0  0  0
 29 30  1  0  0  0
 30 31  1  0  0  0
 31 32  2  0  0  0
 32 33  1  0  0  0
 33 34  1  0  0  0
  9 10  1  0  0  0
 10 11  2  0  0  0
 10 12  1  0  0  0
 12 13  2  0  0  0
 13 14  1  0  0  0
 14 15  2  0  0  0
 15 16  1  0  0  0
 15 17  1  0  0  0
 17 18  2  0  0  0
  7  2  1  0  0  0
 34 30  2  0  0  0
 18 12  1  0  0  0
 28 19  1  0  0  0
 18  7  1  0  0  0
 28 23  1  0  0  0
M  END
> <minimizedAffinity>
-8.57750

> <CNNscore>
0.3056637049

> <CNNaffinity>
6.2459616661

> <CNN_VS>
1.9091638327

> <CNNaffinity_variance>
0.1126338989

$$$$



 34 39  0  0  0  0  0  0  0  0999 V2000
   -7.2972   -3.0910  -22.7605 C   0  0  0  0  0  0  0  0  0  0  0  0
   -7.0161   -1.6341  -22.5398 C   0  0  0  0  0  0  0  0  0  0  0  0
   -5.6579   -1.4078  -21.9449 C   0  0  0  0  0  0  0  0  0  0  0  0
   -5.4717    0.0695  -21.7633 N   0  0  0  0  0  0  0  0  0  0  0  0
   -6.7150    0.7561  -22.2459 C   0  0  0  0  0  0  0  0  0  0  0  0
   -6.9605    2.2359  -22.2483 O   0  0  0  0  0  0  0  0  0  0  0  0
   -7.6695   -0.2968  -22.7259 C   0  0  0  0  0  0  0  0  0  0  0  0
   -8.1921    1.1036  -22.8518 C   0  0  0  0  0  0  0  0  0  0  0  0
   -9.5598    1.3455  -23.4183 N   0  0  0  0  0  0  0  0  0  0  0  0
  -10.4048    0.1872  -23.8588 C   0  0  0  0  0  0  0  0  0  0  0  0
  -11.7725    0.4292  -24.4253 O   0  0  0  0  0  0  0  0  0  0  0  0
   -9.8822   -1.2132  -23.7329 C   0  0  0  0  0  0  0  0  0  0  0  0
  -10.7272   -2.3716  -24.1734 C   0  0  0  0  0  0  0  0  0  0  0  0
  -10.2046   -3.7719  -24.0474 C   0  0  0  0  0  0  0  0  0  0  0  0
   -8.8369   -4.0138  -23.4809 C   0  0  0  0  0  0  0  0  0  0  0  0
   -8.3143   -5.4143  -23.3550 F   0  0  0  0  0  0  0  0  0  0  0  0
   -7.9919   -2.8555  -23.0404 C   0  0  0  0  0  0  0  0  0  0  0  0
   -8.5145   -1.4552  -23.1664 C   0  0  0  0  0  0  0  0  0  0  0  0
   -4.2559    0.7421  -21.1983 C   0  0  0  0  0  0  0  0  0  0  0  0
   -4.2549    1.2180  -19.7758 C   0  0  0  0  0  0  0  0  0  0  0  0
   -3.0391    1.8906  -19.2108 N   0  0  0  0  0  0  0  0  0  0  0  0
   -1.8241    2.0872  -20.0683 C   0  0  0  0  0  0  0  0  0  0  0  0
   -1.8251    1.6113  -21.4908 C   0  0  0  0  0  0  0  0  0  0  0  0
   -0.6101    1.8080  -22.3483 C   0  0  0  0  0  0  0  0  0  0  0  0
   -0.6111    1.3320  -23.7707 C   0  0  0  0  0  0  0  0  0  0  0  0
   -1.8270    0.6595  -24.3357 C   0  0  0  0  0  0  0  0  0  0  0  0
   -3.0419    0.4628  -23.4782 C   0  0  0  0  0  0  0  0  0  0  0  0
   -3.0410    0.9387  -22.0558 C   0  0  0  0  0  0  0  0  0  0  0  0
  -10.0824    2.7460  -23.5443 C   0  0  0  0  0  0  0  0  0  0  0  0
  -11.5568    3.0071  -23.4552 C   0  0  0  0  0  0  0  0  0  0  0  0
  -12.4002    3.6673  -24.5053 C   0  0  0  0  0  0  0  0  0  0  0  0
  -13.8113    3.7221  -23.9996 C   0  0  0  0  0  0  0  0  0  0  0  0
  -13.8400    3.0958  -22.6368 O   0  0  0  0  0  0  0  0  0  0  0  0
  -12.4466    2.6539  -22.3004 N   0  0  0  0  0  0  0  0  0  0  0  0
  2  1  1  0  0  0
  2  3  1  0  0  0
  3  4  1  0  0  0
  4 19  1  0  0  0
 19 20  2  0  0  0
 20 21  1  0  0  0
 21 22  2  0  0  0
 22 23  1  0  0  0
 23 24  2  0  0  0
 24 25  1  0  0  0
 25 26  2  0  0  0
 26 27  1  0  0  0
 27 28  2  0  0  0
  4  5  1  0  0  0
  5  6  2  0  0  0
  5  7  1  0  0  0
  7  8  1  0  0  0
  8  9  1  0  0  0
  9 29  1  0  0  0
 29 30  1  0  0  0
 30 31  1  0  0  0
 31 32  2  0  0  0
 32 33  1  0  0  0
 33 34  1  0  0  0
  9 10  1  0  0  0
 10 11  2  0  0  0
 10 12  1  0  0  0
 12 13  2  0  0  0
 13 14  1  0  0  0
 14 15  2  0  0  0
 15 16  1  0  0  0
 15 17  1  0  0  0
 17 18  2  0  0  0
  7  2  1  0  0  0
 34 30  2  0  0  0
 18 12  1  0  0  0
 28 19  1  0  0  0
 18  7  1  0  0  0
 28 23  1  0  0  0
M  END
> <minimizedAffinity>
-7.93735

> <CNNscore>
0.2991562486

> <CNNaffinity>
6.1639490128

> <CNN_VS>
1.8439838886

> <CNNaffinity_variance>
0.0901869312

$$$$



 34 39  0  0  0  0  0  0  0  0999 V2000
  -10.2489   -1.7868  -23.1270 C   0  0  0  0  0  0  0  0  0  0  0  0
   -9.3379   -0.6265  -23.3985 C   0  0  0  0  0  0  0  0  0  0  0  0
   -7.8949   -1.0360  -23.4108 C   0  0  0  0  0  0  0  0  0  0  0  0
   -7.0689    0.1850  -23.6883 N   0  0  0  0  0  0  0  0  0  0  0  0
   -8.0015    1.3491  -23.8475 C   0  0  0  0  0  0  0  0  0  0  0  0
   -7.6019    2.7659  -24.1354 O   0  0  0  0  0  0  0  0  0  0  0  0
   -9.4038    0.8476  -23.6684 C   0  0  0  0  0  0  0  0  0  0  0  0
   -9.3129    2.3185  -23.9474 C   0  0  0  0  0  0  0  0  0  0  0  0
  -10.5618    3.1458  -24.0247 N   0  0  0  0  0  0  0  0  0  0  0  0
  -11.9015    2.5021  -23.8229 C   0  0  0  0  0  0  0  0  0  0  0  0
  -13.1504    3.3293  -23.9002 O   0  0  0  0  0  0  0  0  0  0  0  0
  -11.9924    1.0310  -23.5439 C   0  0  0  0  0  0  0  0  0  0  0  0
  -13.3321    0.3873  -23.3422 C   0  0  0  0  0  0  0  0  0  0  0  0
  -13.4229   -1.0837  -23.0632 C   0  0  0  0  0  0  0  0  0  0  0  0
  -12.1741   -1.9110  -22.9860 C   0  0  0  0  0  0  0  0  0  0  0  0
  -12.2650   -3.3821  -22.7070 F   0  0  0  0  0  0  0  0  0  0  0  0
  -10.8344   -1.2673  -23.1877 C   0  0  0  0  0  0  0  0  0  0  0  0
  -10.7435    0.2037  -23.4667 C   0  0  0  0  0  0  0  0  0  0  0  0
   -5.5731    0.2334  -23.7889 C   0  0  0  0  0  0  0  0  0  0  0  0
   -4.8971   -0.1076  -25.0837 C   0  0  0  0  0  0  0  0  0  0  0  0
   -3.4013   -0.0591  -25.1844 N   0  0  0  0  0  0  0  0  0  0  0  0
   -2.5815    0.3303  -23.9901 C   0  0  0  0  0  0  0  0  0  0  0  0
   -3.2576    0.6714  -22.6952 C   0  0  0  0  0  0  0  0  0  0  0  0
   -2.4377    1.0608  -21.5009 C   0  0  0  0  0  0  0  0  0  0  0  0
   -3.1138    1.4018  -20.2061 C   0  0  0  0  0  0  0  0  0  0  0  0
   -4.6096    1.3534  -20.1055 C   0  0  0  0  0  0  0  0  0  0  0  0
   -5.4294    0.9639  -21.2998 C   0  0  0  0  0  0  0  0  0  0  0  0
   -4.7534    0.6229  -22.5946 C   0  0  0  0  0  0  0  0  0  0  0  0
  -10.4709    4.6169  -24.3037 C   0  0  0  0  0  0  0  0  0  0  0  0
   -9.1358    5.3005  -24.2965 C   0  0  0  0  0  0  0  0  0  0  0  0
   -8.3620    5.7110  -23.0789 C   0  0  0  0  0  0  0  0  0  0  0  0
   -7.0880    6.3579  -23.5356 C   0  0  0  0  0  0  0  0  0  0  0  0
   -7.0745    6.3472  -25.0356 O   0  0  0  0  0  0  0  0  0  0  0  0
   -8.3401    5.6937  -25.5058 N   0  0  0  0  0  0  0  0  0  0  0  0
  2  1  1  0  0  0
  2  3  1  0  0  0
  3  4  1  0  0  0
  4 19  1  0  0  0
 19 20  2  0  0  0
 20 21  1  0  0  0
 21 22  2  0  0  0
 22 23  1  0  0  0
 23 24  2  0  0  0
 24 25  1  0  0  0
 25 26  2  0  0  0
 26 27  1  0  0  0
 27 28  2  0  0  0
  4  5  1  0  0  0
  5  6  2  0  0  0
  5  7  1  0  0  0
  7  8  1  0  0  0
  8  9  1  0  0  0
  9 29  1  0  0  0
 29 30  1  0  0  0
 30 31  1  0  0  0
 31 32  2  0  0  0
 32 33  1  0  0  0
 33 34  1  0  0  0
  9 10  1  0  0  0
 10 11  2  0  0  0
 10 12  1  0  0  0
 12 13  2  0  0  0
 13 14  1  0  0  0
 14 15  2  0  0  0
 15 16  1  0  0  0
 15 17  1  0  0  0
 17 18  2  0  0  0
  7  2  1  0  0  0
 34 30  2  0  0  0
 18 12  1  0  0  0
 28 19  1  0  0  0
 18  7  1  0  0  0
 28 23  1  0  0  0
M  END
> <minimizedAffinity>
-7.24087

> <CNNscore>
0.2913606763

> <CNNaffinity>
6.1550302505

> <CNN_VS>
1.7933337688

> <CNNaffinity_variance>
0.1089115590

$$$$
