


 36 41  0  0  0  0  0  0  0  0999 V2000
    7.5439   -3.3044   23.6082 C   0  0  0  0  0  0  0  0  0  0  0  0
    7.7745   -2.0587   22.8050 C   0  0  0  0  0  0  0  0  0  0  0  0
    6.6652   -1.8072   21.8272 C   0  0  0  0  0  0  0  0  0  0  0  0
    6.9852   -0.5484   21.0768 N   0  0  0  0  0  0  0  0  0  0  0  0
    8.2924   -0.0219   21.5909 C   0  0  0  0  0  0  0  0  0  0  0  0
    8.9893    1.2199   21.1197 O   0  0  0  0  0  0  0  0  0  0  0  0
    8.7802   -0.9554   22.6590 C   0  0  0  0  0  0  0  0  0  0  0  0
    9.6926    0.2070   22.4014 C   0  0  0  0  0  0  0  0  0  0  0  0
   10.9630    0.3515   23.1857 N   0  0  0  0  0  0  0  0  0  0  0  0
   11.3210   -0.6663   24.2276 C   0  0  0  0  0  0  0  0  0  0  0  0
   12.5914   -0.5218   25.0120 O   0  0  0  0  0  0  0  0  0  0  0  0
   10.4086   -1.8288   24.4853 C   0  0  0  0  0  0  0  0  0  0  0  0
   10.7667   -2.8467   25.5273 C   0  0  0  0  0  0  0  0  0  0  0  0
    9.8543   -4.0090   25.7849 C   0  0  0  0  0  0  0  0  0  0  0  0
    8.5839   -4.1535   25.0006 C   0  0  0  0  0  0  0  0  0  0  0  0
    7.6715   -5.3160   25.2582 F   0  0  0  0  0  0  0  0  0  0  0  0
    8.2259   -3.1357   23.9586 C   0  0  0  0  0  0  0  0  0  0  0  0
    9.1382   -1.9733   23.7010 C   0  0  0  0  0  0  0  0  0  0  0  0
    6.1456    0.0746   20.0013 C   0  0  0  0  0  0  0  0  0  0  0  0
    6.5637   -0.0357   18.5651 C   0  0  0  0  0  0  0  0  0  0  0  0
    5.7241    0.5873   17.4895 N   0  0  0  0  0  0  0  0  0  0  0  0
    4.4663    1.3207   17.8503 C   0  0  0  0  0  0  0  0  0  0  0  0
    4.0482    1.4310   19.2866 C   0  0  0  0  0  0  0  0  0  0  0  0
    2.7903    2.1644   19.6473 C   0  0  0  0  0  0  0  0  0  0  0  0
    2.3723    2.2747   21.0837 C   0  0  0  0  0  0  0  0  0  0  0  0
    3.2119    1.6517   22.1591 C   0  0  0  0  0  0  0  0  0  0  0  0
    4.4697    0.9183   21.7984 C   0  0  0  0  0  0  0  0  0  0  0  0
    4.8878    0.8080   20.3621 C   0  0  0  0  0  0  0  0  0  0  0  0
   11.8754    1.5140   22.9280 C   0  0  0  0  0  0  0  0  0  0  0  0
   11.3461    2.9151   23.0088 C   0  0  0  0  0  0  0  0  0  0  0  0
    9.8997    3.3098   23.0568 C   0  0  0  0  0  0  0  0  0  0  0  0
    9.8299    4.8062   23.1335 N   0  0  0  0  0  0  0  0  0  0  0  0
   11.2332    5.3364   23.1328 C   0  0  0  0  0  0  0  0  0  0  0  0
   12.1702    4.1676   23.0558 N   0  0  0  0  0  0  0  0  0  0  0  0
    9.0075    5.3457   23.1766 H   0  0  0  0  0  0  0  0  0  0  0  0
   13.1534    4.2143   23.0390 H   0  0  0  0  0  0  0  0  0  0  0  0
  2  1  1  0  0  0
  2  3  1  0  0  0
  3  4  1  0  0  0
  4 19  1  0  0  0
 19 20  2  0  0  0
 20 21  1  0  0  0
 21 22  2  0  0  0
 22 23  1  0  0  0
 23 24  2  0  0  0
 24 25  1  0  0  0
 25 26  2  0  0  0
 26 27  1  0  0  0
 27 28  2  0  0  0
  4  5  1  0  0  0
  5  6  2  0  0  0
  5  7  1  0  0  0
  7  8  1  0  0  0
  8  9  1  0  0  0
  9 29  1  0  0  0
 29 30  1  0  0  0
 30 31  2  0  0  0
 31 32  1  0  0  0
 32 33  2  0  0  0
 33 34  1  0  0  0
  9 10  1  0  0  0
 10 11  2  0  0  0
 10 12  1  0  0  0
 12 13  2  0  0  0
 13 14  1  0  0  0
 14 15  2  0  0  0
 15 16  1  0  0  0
 15 17  1  0  0  0
 17 18  2  0  0  0
  7  2  1  0  0  0
 34 30  1  0  0  0
 18 12  1  0  0  0
 28 19  1  0  0  0
 18  7  1  0  0  0
 28 23  1  0  0  0
 32 35  1  0  0  0
 34 36  1  0  0  0
M  CHG 1  32   1
M  END
> <minimizedAffinity>
-10.04537

> <CNNscore>
0.8311651349

> <CNNaffinity>
7.1344022751

> <CNN_VS>
5.9298663139

> <CNNaffinity_variance>
0.0232490189

$$$$



 36 41  0  0  0  0  0  0  0  0999 V2000
   10.9306   -3.3031   26.1333 C   0  0  0  0  0  0  0  0  0  0  0  0
    9.5358   -2.8594   25.8053 C   0  0  0  0  0  0  0  0  0  0  0  0
    8.5023   -3.7745   26.3923 C   0  0  0  0  0  0  0  0  0  0  0  0
    7.1494   -3.2506   26.0117 N   0  0  0  0  0  0  0  0  0  0  0  0
    7.3466   -2.0116   25.1895 C   0  0  0  0  0  0  0  0  0  0  0  0
    6.2598   -1.1634   24.5985 O   0  0  0  0  0  0  0  0  0  0  0  0
    8.8215   -1.7698   25.0619 C   0  0  0  0  0  0  0  0  0  0  0  0
    7.9733   -0.7499   24.3618 C   0  0  0  0  0  0  0  0  0  0  0  0
    8.6203    0.3826   23.6209 N   0  0  0  0  0  0  0  0  0  0  0  0
   10.1155    0.4951   23.5801 C   0  0  0  0  0  0  0  0  0  0  0  0
   10.7625    1.6275   22.8392 O   0  0  0  0  0  0  0  0  0  0  0  0
   10.9638   -0.5249   24.2802 C   0  0  0  0  0  0  0  0  0  0  0  0
   12.4589   -0.4125   24.2393 C   0  0  0  0  0  0  0  0  0  0  0  0
   13.3071   -1.4325   24.9394 C   0  0  0  0  0  0  0  0  0  0  0  0
   12.6601   -2.5649   25.6803 C   0  0  0  0  0  0  0  0  0  0  0  0
   13.5084   -3.5849   26.3804 F   0  0  0  0  0  0  0  0  0  0  0  0
   11.1650   -2.6774   25.7211 C   0  0  0  0  0  0  0  0  0  0  0  0
   10.3168   -1.6574   25.0211 C   0  0  0  0  0  0  0  0  0  0  0  0
    5.8306   -3.8587   26.3874 C   0  0  0  0  0  0  0  0  0  0  0  0
    5.0786   -4.6922   25.3926 C   0  0  0  0  0  0  0  0  0  0  0  0
    3.7599   -5.3004   25.7683 N   0  0  0  0  0  0  0  0  0  0  0  0
    3.1933   -5.0750   27.1387 C   0  0  0  0  0  0  0  0  0  0  0  0
    3.9454   -4.2415   28.1335 C   0  0  0  0  0  0  0  0  0  0  0  0
    3.3788   -4.0162   29.5041 C   0  0  0  0  0  0  0  0  0  0  0  0
    4.1310   -3.1827   30.4988 C   0  0  0  0  0  0  0  0  0  0  0  0
    5.4496   -2.5746   30.1231 C   0  0  0  0  0  0  0  0  0  0  0  0
    6.0162   -2.7999   28.7526 C   0  0  0  0  0  0  0  0  0  0  0  0
    5.2641   -3.6334   27.7579 C   0  0  0  0  0  0  0  0  0  0  0  0
    7.7720    1.4026   22.9208 C   0  0  0  0  0  0  0  0  0  0  0  0
    7.7938    2.8331   23.3716 C   0  0  0  0  0  0  0  0  0  0  0  0
    7.0892    3.3897   24.5731 C   0  0  0  0  0  0  0  0  0  0  0  0
    7.3839    4.8587   24.6442 N   0  0  0  0  0  0  0  0  0  0  0  0
    8.2707    5.2101   23.4865 C   0  0  0  0  0  0  0  0  0  0  0  0
    8.5240    3.9582   22.7000 N   0  0  0  0  0  0  0  0  0  0  0  0
    7.0533    5.4827   25.3301 H   0  0  0  0  0  0  0  0  0  0  0  0
    9.0732    3.8873   21.8860 H   0  0  0  0  0  0  0  0  0  0  0  0
  2  1  1  0  0  0
  2  3  1  0  0  0
  3  4  1  0  0  0
  4 19  1  0  0  0
 19 20  2  0  0  0
 20 21  1  0  0  0
 21 22  2  0  0  0
 22 23  1  0  0  0
 23 24  2  0  0  0
 24 25  1  0  0  0
 25 26  2  0  0  0
 26 27  1  0  0  0
 27 28  2  0  0  0
  4  5  1  0  0  0
  5  6  2  0  0  0
  5  7  1  0  0  0
  7  8  1  0  0  0
  8  9  1  0  0  0
  9 29  1  0  0  0
 29 30  1  0  0  0
 30 31  2  0  0  0
 31 32  1  0  0  0
 32 33  2  0  0  0
 33 34  1  0  0  0
  9 10  1  0  0  0
 10 11  2  0  0  0
 10 12  1  0  0  0
 12 13  2  0  0  0
 13 14  1  0  0  0
 14 15  2  0  0  0
 15 16  1  0  0  0
 15 17  1  0  0  0
 17 18  2  0  0  0
  7  2  1  0  0  0
 34 30  1  0  0  0
 18 12  1  0  0  0
 28 19  1  0  0  0
 18  7  1  0  0  0
 28 23  1  0  0  0
 32 35  1  0  0  0
 34 36  1  0  0  0
M  CHG 1  32   1
M  END
> <minimizedAffinity>
-8.26047

> <CNNscore>
0.4995335937

> <CNNaffinity>
6.7112274170

> <CNN_VS>
3.3524835110

> <CNNaffinity_variance>
0.2125475407

$$$$



 36 41  0  0  0  0  0  0  0  0999 V2000
    8.9932   -0.8936   23.8360 C   0  0  0  0  0  0  0  0  0  0  0  0
    7.8773   -1.3102   22.9242 C   0  0  0  0  0  0  0  0  0  0  0  0
    7.4525   -0.1980   22.0117 C   0  0  0  0  0  0  0  0  0  0  0  0
    6.3399   -0.7090   21.1450 N   0  0  0  0  0  0  0  0  0  0  0  0
    6.0772   -2.1369   21.5220 C   0  0  0  0  0  0  0  0  0  0  0  0
    5.0454   -3.0355   20.9072 O   0  0  0  0  0  0  0  0  0  0  0  0
    7.0273   -2.5085   22.6215 C   0  0  0  0  0  0  0  0  0  0  0  0
    6.1065   -3.6186   22.2100 C   0  0  0  0  0  0  0  0  0  0  0  0
    6.1917   -4.9540   22.8879 N   0  0  0  0  0  0  0  0  0  0  0  0
    7.1978   -5.1792   23.9773 C   0  0  0  0  0  0  0  0  0  0  0  0
    7.2830   -6.5146   24.6552 O   0  0  0  0  0  0  0  0  0  0  0  0
    8.1188   -4.0690   24.3889 C   0  0  0  0  0  0  0  0  0  0  0  0
    9.1249   -4.2942   25.4784 C   0  0  0  0  0  0  0  0  0  0  0  0
   10.0458   -3.1841   25.8900 C   0  0  0  0  0  0  0  0  0  0  0  0
    9.9606   -1.8487   25.2121 C   0  0  0  0  0  0  0  0  0  0  0  0
   10.8815   -0.7385   25.6237 F   0  0  0  0  0  0  0  0  0  0  0  0
    8.9544   -1.6235   24.1226 C   0  0  0  0  0  0  0  0  0  0  0  0
    8.0335   -2.7337   23.7111 C   0  0  0  0  0  0  0  0  0  0  0  0
    5.6170    0.0710   20.0872 C   0  0  0  0  0  0  0  0  0  0  0  0
    6.0842    0.0148   18.6630 C   0  0  0  0  0  0  0  0  0  0  0  0
    5.3612    0.7947   17.6052 N   0  0  0  0  0  0  0  0  0  0  0  0
    4.1711    1.6310   17.9717 C   0  0  0  0  0  0  0  0  0  0  0  0
    3.7039    1.6872   19.3960 C   0  0  0  0  0  0  0  0  0  0  0  0
    2.5137    2.5235   19.7624 C   0  0  0  0  0  0  0  0  0  0  0  0
    2.0466    2.5796   21.1867 C   0  0  0  0  0  0  0  0  0  0  0  0
    2.7695    1.7996   22.2445 C   0  0  0  0  0  0  0  0  0  0  0  0
    3.9597    0.9634   21.8780 C   0  0  0  0  0  0  0  0  0  0  0  0
    4.4268    0.9072   20.4538 C   0  0  0  0  0  0  0  0  0  0  0  0
    5.2707   -6.0642   22.4762 C   0  0  0  0  0  0  0  0  0  0  0  0
    4.0250   -6.3370   23.2660 C   0  0  0  0  0  0  0  0  0  0  0  0
    3.7230   -5.8221   24.6421 C   0  0  0  0  0  0  0  0  0  0  0  0
    2.3739   -6.3394   25.0449 N   0  0  0  0  0  0  0  0  0  0  0  0
    1.8421   -7.1742   23.9177 C   0  0  0  0  0  0  0  0  0  0  0  0
    2.8625   -7.1727   22.8183 N   0  0  0  0  0  0  0  0  0  0  0  0
    1.9176   -6.1622   25.8991 H   0  0  0  0  0  0  0  0  0  0  0  0
    2.7832   -7.6384   21.9546 H   0  0  0  0  0  0  0  0  0  0  0  0
  2  1  1  0  0  0
  2  3  1  0  0  0
  3  4  1  0  0  0
  4 19  1  0  0  0
 19 20  2  0  0  0
 20 21  1  0  0  0
 21 22  2  0  0  0
 22 23  1  0  0  0
 23 24  2  0  0  0
 24 25  1  0  0  0
 25 26  2  0  0  0
 26 27  1  0  0  0
 27 28  2  0  0  0
  4  5  1  0  0  0
  5  6  2  0  0  0
  5  7  1  0  0  0
  7  8  1  0  0  0
  8  9  1  0  0  0
  9 29  1  0  0  0
 29 30  1  0  0  0
 30 31  2  0  0  0
 31 32  1  0  0  0
 32 33  2  0  0  0
 33 34  1  0  0  0
  9 10  1  0  0  0
 10 11  2  0  0  0
 10 12  1  0  0  0
 12 13  2  0  0  0
 13 14  1  0  0  0
 14 15  2  0  0  0
 15 16  1  0  0  0
 15 17  1  0  0  0
 17 18  2  0  0  0
  7  2  1  0  0  0
 34 30  1  0  0  0
 18 12  1  0  0  0
 28 19  1  0  0  0
 18  7  1  0  0  0
 28 23  1  0  0  0
 32 35  1  0  0  0
 34 36  1  0  0  0
M  CHG 1  32   1
M  END
> <minimizedAffinity>
-8.34070

> <CNNscore>
0.4534345269

> <CNNaffinity>
6.5306787491

> <CNN_VS>
2.9612352848

> <CNNaffinity_variance>
0.0056418083

$$$$



 36 41  0  0  0  0  0  0  0  0999 V2000
   11.0646    0.1138   22.5005 C   0  0  0  0  0  0  0  0  0  0  0  0
    9.6946   -0.4695   22.3194 C   0  0  0  0  0  0  0  0  0  0  0  0
    8.8787    0.3090   21.3303 C   0  0  0  0  0  0  0  0  0  0  0  0
    7.5348   -0.3478   21.2189 N   0  0  0  0  0  0  0  0  0  0  0  0
    7.5201   -1.5323   22.1392 C   0  0  0  0  0  0  0  0  0  0  0  0
    6.3721   -2.4759   22.3434 O   0  0  0  0  0  0  0  0  0  0  0  0
    8.8549   -1.6075   22.8193 C   0  0  0  0  0  0  0  0  0  0  0  0
    7.9017   -2.6923   23.2247 C   0  0  0  0  0  0  0  0  0  0  0  0
    8.3228   -3.7243   24.2285 N   0  0  0  0  0  0  0  0  0  0  0  0
    9.6973   -3.6715   24.8269 C   0  0  0  0  0  0  0  0  0  0  0  0
   10.1184   -4.7034   25.8307 O   0  0  0  0  0  0  0  0  0  0  0  0
   10.6506   -2.5866   24.4215 C   0  0  0  0  0  0  0  0  0  0  0  0
   12.0250   -2.5337   25.0199 C   0  0  0  0  0  0  0  0  0  0  0  0
   12.9783   -1.4489   24.6145 C   0  0  0  0  0  0  0  0  0  0  0  0
   12.5571   -0.4169   23.6107 C   0  0  0  0  0  0  0  0  0  0  0  0
   13.5104    0.6679   23.2052 F   0  0  0  0  0  0  0  0  0  0  0  0
   11.1827   -0.4698   23.0123 C   0  0  0  0  0  0  0  0  0  0  0  0
   10.2294   -1.5546   23.4177 C   0  0  0  0  0  0  0  0  0  0  0  0
    6.4041    0.1009   20.3413 C   0  0  0  0  0  0  0  0  0  0  0  0
    6.4860   -0.0906   18.8559 C   0  0  0  0  0  0  0  0  0  0  0  0
    5.3553    0.3582   17.9784 N   0  0  0  0  0  0  0  0  0  0  0  0
    4.1427    0.9985   18.5863 C   0  0  0  0  0  0  0  0  0  0  0  0
    4.0608    1.1900   20.0718 C   0  0  0  0  0  0  0  0  0  0  0  0
    2.8482    1.8304   20.6797 C   0  0  0  0  0  0  0  0  0  0  0  0
    2.7664    2.0219   22.1652 C   0  0  0  0  0  0  0  0  0  0  0  0
    3.8970    1.5731   23.0427 C   0  0  0  0  0  0  0  0  0  0  0  0
    5.1096    0.9328   22.4347 C   0  0  0  0  0  0  0  0  0  0  0  0
    5.1915    0.7413   20.9493 C   0  0  0  0  0  0  0  0  0  0  0  0
    7.3695   -4.8092   24.6340 C   0  0  0  0  0  0  0  0  0  0  0  0
    6.4494   -5.4175   23.6175 C   0  0  0  0  0  0  0  0  0  0  0  0
    6.8470   -6.3616   22.5217 C   0  0  0  0  0  0  0  0  0  0  0  0
    5.6135   -6.7162   21.7452 N   0  0  0  0  0  0  0  0  0  0  0  0
    4.4536   -5.9913   22.3611 C   0  0  0  0  0  0  0  0  0  0  0  0
    4.9703   -5.1887   23.5182 N   0  0  0  0  0  0  0  0  0  0  0  0
    5.5725   -7.3189   20.9679 H   0  0  0  0  0  0  0  0  0  0  0  0
    4.4329   -4.6128   24.1089 H   0  0  0  0  0  0  0  0  0  0  0  0
  2  1  1  0  0  0
  2  3  1  0  0  0
  3  4  1  0  0  0
  4 19  1  0  0  0
 19 20  2  0  0  0
 20 21  1  0  0  0
 21 22  2  0  0  0
 22 23  1  0  0  0
 23 24  2  0  0  0
 24 25  1  0  0  0
 25 26  2  0  0  0
 26 27  1  0  0  0
 27 28  2  0  0  0
  4  5  1  0  0  0
  5  6  2  0  0  0
  5  7  1  0  0  0
  7  8  1  0  0  0
  8  9  1  0  0  0
  9 29  1  0  0  0
 29 30  1  0  0  0
 30 31  2  0  0  0
 31 32  1  0  0  0
 32 33  2  0  0  0
 33 34  1  0  0  0
  9 10  1  0  0  0
 10 11  2  0  0  0
 10 12  1  0  0  0
 12 13  2  0  0  0
 13 14  1  0  0  0
 14 15  2  0  0  0
 15 16  1  0  0  0
 15 17  1  0  0  0
 17 18  2  0  0  0
  7  2  1  0  0  0
 34 30  1  0  0  0
 18 12  1  0  0  0
 28 19  1  0  0  0
 18  7  1  0  0  0
 28 23  1  0  0  0
 32 35  1  0  0  0
 34 36  1  0  0  0
M  CHG 1  32   1
M  END
> <minimizedAffinity>
-9.39745

> <CNNscore>
0.3163288832

> <CNNaffinity>
6.6374106407

> <CNN_VS>
2.0996046066

> <CNNaffinity_variance>
0.1128872484

$$$$



 36 41  0  0  0  0  0  0  0  0999 V2000
    7.1698    0.0836   20.0991 C   0  0  0  0  0  0  0  0  0  0  0  0
    7.5508    0.0619   21.5498 C   0  0  0  0  0  0  0  0  0  0  0  0
    8.9587   -0.4138   21.7539 C   0  0  0  0  0  0  0  0  0  0  0  0
    9.2436   -0.4002   23.2266 N   0  0  0  0  0  0  0  0  0  0  0  0
    8.0118    0.0839   23.9325 C   0  0  0  0  0  0  0  0  0  0  0  0
    7.8539    0.2527   25.4146 O   0  0  0  0  0  0  0  0  0  0  0  0
    6.9656    0.3695   22.8963 C   0  0  0  0  0  0  0  0  0  0  0  0
    6.5184    0.6335   24.3035 C   0  0  0  0  0  0  0  0  0  0  0  0
    5.1307    1.1381   24.5673 N   0  0  0  0  0  0  0  0  0  0  0  0
    4.1901    1.3786   23.4239 C   0  0  0  0  0  0  0  0  0  0  0  0
    2.8024    1.8832   23.6877 O   0  0  0  0  0  0  0  0  0  0  0  0
    4.6372    1.1146   22.0166 C   0  0  0  0  0  0  0  0  0  0  0  0
    3.6966    1.3551   20.8732 C   0  0  0  0  0  0  0  0  0  0  0  0
    4.1438    1.0911   19.4660 C   0  0  0  0  0  0  0  0  0  0  0  0
    5.5315    0.5865   19.2022 C   0  0  0  0  0  0  0  0  0  0  0  0
    5.9786    0.3225   17.7949 F   0  0  0  0  0  0  0  0  0  0  0  0
    6.4721    0.3460   20.3456 C   0  0  0  0  0  0  0  0  0  0  0  0
    6.0250    0.6100   21.7528 C   0  0  0  0  0  0  0  0  0  0  0  0
   10.5337   -0.8004   23.8788 C   0  0  0  0  0  0  0  0  0  0  0  0
   11.7608    0.0420   23.6933 C   0  0  0  0  0  0  0  0  0  0  0  0
   13.0509   -0.3582   24.3455 N   0  0  0  0  0  0  0  0  0  0  0  0
   13.1139   -1.6009   25.1831 C   0  0  0  0  0  0  0  0  0  0  0  0
   11.8868   -2.4434   25.3686 C   0  0  0  0  0  0  0  0  0  0  0  0
   11.9498   -3.6862   26.2062 C   0  0  0  0  0  0  0  0  0  0  0  0
   10.7227   -4.5286   26.3916 C   0  0  0  0  0  0  0  0  0  0  0  0
    9.4326   -4.1284   25.7394 C   0  0  0  0  0  0  0  0  0  0  0  0
    9.3696   -2.8856   24.9018 C   0  0  0  0  0  0  0  0  0  0  0  0
   10.5966   -2.0432   24.7164 C   0  0  0  0  0  0  0  0  0  0  0  0
    4.6836    1.4021   25.9746 C   0  0  0  0  0  0  0  0  0  0  0  0
    4.9910    0.4109   27.0577 C   0  0  0  0  0  0  0  0  0  0  0  0
    5.1102    0.7137   28.5219 C   0  0  0  0  0  0  0  0  0  0  0  0
    5.4261   -0.5671   29.2359 N   0  0  0  0  0  0  0  0  0  0  0  0
    5.5021   -1.6616   28.2128 C   0  0  0  0  0  0  0  0  0  0  0  0
    5.2332   -1.0570   26.8666 N   0  0  0  0  0  0  0  0  0  0  0  0
    5.5600   -0.6713   30.2057 H   0  0  0  0  0  0  0  0  0  0  0  0
    5.2183   -1.5391   26.0083 H   0  0  0  0  0  0  0  0  0  0  0  0
  2  1  1  0  0  0
  2  3  1  0  0  0
  3  4  1  0  0  0
  4 19  1  0  0  0
 19 20  2  0  0  0
 20 21  1  0  0  0
 21 22  2  0  0  0
 22 23  1  0  0  0
 23 24  2  0  0  0
 24 25  1  0  0  0
 25 26  2  0  0  0
 26 27  1  0  0  0
 27 28  2  0  0  0
  4  5  1  0  0  0
  5  6  2  0  0  0
  5  7  1  0  0  0
  7  8  1  0  0  0
  8  9  1  0  0  0
  9 29  1  0  0  0
 29 30  1  0  0  0
 30 31  2  0  0  0
 31 32  1  0  0  0
 32 33  2  0  0  0
 33 34  1  0  0  0
  9 10  1  0  0  0
 10 11  2  0  0  0
 10 12  1  0  0  0
 12 13  2  0  0  0
 13 14  1  0  0  0
 14 15  2  0  0  0
 15 16  1  0  0  0
 15 17  1  0  0  0
 17 18  2  0  0  0
  7  2  1  0  0  0
 34 30  1  0  0  0
 18 12  1  0  0  0
 28 19  1  0  0  0
 18  7  1  0  0  0
 28 23  1  0  0  0
 32 35  1  0  0  0
 34 36  1  0  0  0
M  CHG 1  32   1
M  END
> <minimizedAffinity>
-8.25517

> <CNNscore>
0.3002023697

> <CNNaffinity>
6.2702465057

> <CNN_VS>
1.8823428154

> <CNNaffinity_variance>
0.1147349253

$$$$



 36 41  0  0  0  0  0  0  0  0999 V2000
    9.7765   -2.4841   26.1780 C   0  0  0  0  0  0  0  0  0  0  0  0
    9.0764   -1.3323   25.5196 C   0  0  0  0  0  0  0  0  0  0  0  0
    7.6233   -1.2736   25.8875 C   0  0  0  0  0  0  0  0  0  0  0  0
    7.0145   -0.0967   25.1846 N   0  0  0  0  0  0  0  0  0  0  0  0
    8.0912    0.5719   24.3823 C   0  0  0  0  0  0  0  0  0  0  0  0
    7.9231    1.7903   23.5236 O   0  0  0  0  0  0  0  0  0  0  0  0
    9.3655   -0.1918   24.5894 C   0  0  0  0  0  0  0  0  0  0  0  0
    9.5032    0.9878   23.6730 C   0  0  0  0  0  0  0  0  0  0  0  0
   10.8331    1.3084   23.0578 N   0  0  0  0  0  0  0  0  0  0  0  0
   12.0254    0.4495   23.3590 C   0  0  0  0  0  0  0  0  0  0  0  0
   13.3554    0.7701   22.7438 O   0  0  0  0  0  0  0  0  0  0  0  0
   11.8878   -0.7301   24.2754 C   0  0  0  0  0  0  0  0  0  0  0  0
   13.0800   -1.5890   24.5765 C   0  0  0  0  0  0  0  0  0  0  0  0
   12.9423   -2.7685   25.4929 C   0  0  0  0  0  0  0  0  0  0  0  0
   11.6124   -3.0892   26.1081 C   0  0  0  0  0  0  0  0  0  0  0  0
   11.4748   -4.2688   27.0245 F   0  0  0  0  0  0  0  0  0  0  0  0
   10.4201   -2.2303   25.8069 C   0  0  0  0  0  0  0  0  0  0  0  0
   10.5578   -1.0507   24.8906 C   0  0  0  0  0  0  0  0  0  0  0  0
    5.5806    0.3357   25.2691 C   0  0  0  0  0  0  0  0  0  0  0  0
    4.6718    0.1542   24.0897 C   0  0  0  0  0  0  0  0  0  0  0  0
    3.2380    0.5866   24.1742 N   0  0  0  0  0  0  0  0  0  0  0  0
    2.7131    1.2006   25.4381 C   0  0  0  0  0  0  0  0  0  0  0  0
    3.6219    1.3821   26.6175 C   0  0  0  0  0  0  0  0  0  0  0  0
    3.0969    1.9961   27.8815 C   0  0  0  0  0  0  0  0  0  0  0  0
    4.0059    2.1776   29.0608 C   0  0  0  0  0  0  0  0  0  0  0  0
    5.4397    1.7452   28.9763 C   0  0  0  0  0  0  0  0  0  0  0  0
    5.9646    1.1312   27.7124 C   0  0  0  0  0  0  0  0  0  0  0  0
    5.0558    0.9497   26.5330 C   0  0  0  0  0  0  0  0  0  0  0  0
   10.9708    2.4880   22.1414 C   0  0  0  0  0  0  0  0  0  0  0  0
   10.7563    3.8759   22.6682 C   0  0  0  0  0  0  0  0  0  0  0  0
   11.8309    4.8421   23.0704 C   0  0  0  0  0  0  0  0  0  0  0  0
   11.1684    6.1047   23.5360 N   0  0  0  0  0  0  0  0  0  0  0  0
    9.6843    5.9190   23.4215 C   0  0  0  0  0  0  0  0  0  0  0  0
    9.4297    4.5415   22.8852 N   0  0  0  0  0  0  0  0  0  0  0  0
   11.6271    6.9134   23.8599 H   0  0  0  0  0  0  0  0  0  0  0  0
    8.5468    4.1440   22.7068 H   0  0  0  0  0  0  0  0  0  0  0  0
  2  1  1  0  0  0
  2  3  1  0  0  0
  3  4  1  0  0  0
  4 19  1  0  0  0
 19 20  2  0  0  0
 20 21  1  0  0  0
 21 22  2  0  0  0
 22 23  1  0  0  0
 23 24  2  0  0  0
 24 25  1  0  0  0
 25 26  2  0  0  0
 26 27  1  0  0  0
 27 28  2  0  0  0
  4  5  1  0  0  0
  5  6  2  0  0  0
  5  7  1  0  0  0
  7  8  1  0  0  0
  8  9  1  0  0  0
  9 29  1  0  0  0
 29 30  1  0  0  0
 30 31  2  0  0  0
 31 32  1  0  0  0
 32 33  2  0  0  0
 33 34  1  0  0  0
  9 10  1  0  0  0
 10 11  2  0  0  0
 10 12  1  0  0  0
 12 13  2  0  0  0
 13 14  1  0  0  0
 14 15  2  0  0  0
 15 16  1  0  0  0
 15 17  1  0  0  0
 17 18  2  0  0  0
  7  2  1  0  0  0
 34 30  1  0  0  0
 18 12  1  0  0  0
 28 19  1  0  0  0
 18  7  1  0  0  0
 28 23  1  0  0  0
 32 35  1  0  0  0
 34 36  1  0  0  0
M  CHG 1  32   1
M  END
> <minimizedAffinity>
-8.08764

> <CNNscore>
0.2930189371

> <CNNaffinity>
6.5106763840

> <CNN_VS>
1.9077514410

> <CNNaffinity_variance>
0.1279850900

$$$$



 36 41  0  0  0  0  0  0  0  0999 V2000
   10.6789   -3.7424   25.5628 C   0  0  0  0  0  0  0  0  0  0  0  0
    9.4738   -3.4078   24.7344 C   0  0  0  0  0  0  0  0  0  0  0  0
    8.4085   -4.4583   24.8425 C   0  0  0  0  0  0  0  0  0  0  0  0
    7.2526   -4.0361   23.9848 N   0  0  0  0  0  0  0  0  0  0  0  0
    7.6036   -2.7248   23.3466 C   0  0  0  0  0  0  0  0  0  0  0  0
    6.7343   -1.9396   22.4096 O   0  0  0  0  0  0  0  0  0  0  0  0
    8.9764   -2.3365   23.8099 C   0  0  0  0  0  0  0  0  0  0  0  0
    8.3476   -1.3501   22.8710 C   0  0  0  0  0  0  0  0  0  0  0  0
    9.0922   -0.1084   22.4786 N   0  0  0  0  0  0  0  0  0  0  0  0
   10.4655    0.1468   23.0253 C   0  0  0  0  0  0  0  0  0  0  0  0
   11.2101    1.3884   22.6329 O   0  0  0  0  0  0  0  0  0  0  0  0
   11.0943   -0.8396   23.9643 C   0  0  0  0  0  0  0  0  0  0  0  0
   12.4676   -0.5844   24.5109 C   0  0  0  0  0  0  0  0  0  0  0  0
   13.0963   -1.5708   25.4499 C   0  0  0  0  0  0  0  0  0  0  0  0
   12.3517   -2.8124   25.8422 C   0  0  0  0  0  0  0  0  0  0  0  0
   12.9805   -3.7988   26.7812 F   0  0  0  0  0  0  0  0  0  0  0  0
   10.9784   -3.0676   25.2956 C   0  0  0  0  0  0  0  0  0  0  0  0
   10.3497   -2.0813   24.3566 C   0  0  0  0  0  0  0  0  0  0  0  0
    5.9708   -4.7925   23.7980 C   0  0  0  0  0  0  0  0  0  0  0  0
    5.6645   -5.4347   22.4776 C   0  0  0  0  0  0  0  0  0  0  0  0
    4.3827   -6.1911   22.2909 N   0  0  0  0  0  0  0  0  0  0  0  0
    3.4072   -6.3051   23.4246 C   0  0  0  0  0  0  0  0  0  0  0  0
    3.7135   -5.6628   24.7451 C   0  0  0  0  0  0  0  0  0  0  0  0
    2.7379   -5.7769   25.8788 C   0  0  0  0  0  0  0  0  0  0  0  0
    3.0443   -5.1346   27.1993 C   0  0  0  0  0  0  0  0  0  0  0  0
    4.3260   -4.3783   27.3860 C   0  0  0  0  0  0  0  0  0  0  0  0
    5.3016   -4.2642   26.2522 C   0  0  0  0  0  0  0  0  0  0  0  0
    4.9953   -4.9065   24.9318 C   0  0  0  0  0  0  0  0  0  0  0  0
    8.4634    0.8780   21.5396 C   0  0  0  0  0  0  0  0  0  0  0  0
    8.0122    2.2150   22.0482 C   0  0  0  0  0  0  0  0  0  0  0  0
    6.8362    2.9986   21.5451 C   0  0  0  0  0  0  0  0  0  0  0  0
    6.7549    4.2711   22.3351 N   0  0  0  0  0  0  0  0  0  0  0  0
    7.8807    4.2740   23.3265 C   0  0  0  0  0  0  0  0  0  0  0  0
    8.6577    3.0032   23.1492 N   0  0  0  0  0  0  0  0  0  0  0  0
    6.0810    4.9799   22.2227 H   0  0  0  0  0  0  0  0  0  0  0  0
    9.4519    2.7338   23.6648 H   0  0  0  0  0  0  0  0  0  0  0  0
  2  1  1  0  0  0
  2  3  1  0  0  0
  3  4  1  0  0  0
  4 19  1  0  0  0
 19 20  2  0  0  0
 20 21  1  0  0  0
 21 22  2  0  0  0
 22 23  1  0  0  0
 23 24  2  0  0  0
 24 25  1  0  0  0
 25 26  2  0  0  0
 26 27  1  0  0  0
 27 28  2  0  0  0
  4  5  1  0  0  0
  5  6  2  0  0  0
  5  7  1  0  0  0
  7  8  1  0  0  0
  8  9  1  0  0  0
  9 29  1  0  0  0
 29 30  1  0  0  0
 30 31  2  0  0  0
 31 32  1  0  0  0
 32 33  2  0  0  0
 33 34  1  0  0  0
  9 10  1  0  0  0
 10 11  2  0  0  0
 10 12  1  0  0  0
 12 13  2  0  0  0
 13 14  1  0  0  0
 14 15  2  0  0  0
 15 16  1  0  0  0
 15 17  1  0  0  0
 17 18  2  0  0  0
  7  2  1  0  0  0
 34 30  1  0  0  0
 18 12  1  0  0  0
 28 19  1  0  0  0
 18  7  1  0  0  0
 28 23  1  0  0  0
 32 35  1  0  0  0
 34 36  1  0  0  0
M  CHG 1  32   1
M  END
> <minimizedAffinity>
-8.73707

> <CNNscore>
0.2472834885

> <CNNaffinity>
6.4432425499

> <CNN_VS>
1.5933074951

> <CNNaffinity_variance>
0.0971580371

$$$$



 36 41  0  0  0  0  0  0  0  0999 V2000
    6.2369    0.1253   19.5544 C   0  0  0  0  0  0  0  0  0  0  0  0
    6.2929   -0.1981   21.0181 C   0  0  0  0  0  0  0  0  0  0  0  0
    7.5087   -1.0033   21.3695 C   0  0  0  0  0  0  0  0  0  0  0  0
    7.4747   -1.2745   22.8444 N   0  0  0  0  0  0  0  0  0  0  0  0
    6.2379   -0.6369   23.4045 C   0  0  0  0  0  0  0  0  0  0  0  0
    5.8071   -0.6605   24.8411 O   0  0  0  0  0  0  0  0  0  0  0  0
    5.5075    0.0283   22.2758 C   0  0  0  0  0  0  0  0  0  0  0  0
    4.8333    0.1727   23.6079 C   0  0  0  0  0  0  0  0  0  0  0  0
    3.5439    0.9312   23.7177 N   0  0  0  0  0  0  0  0  0  0  0  0
    2.9286    1.5453   22.4953 C   0  0  0  0  0  0  0  0  0  0  0  0
    1.6392    2.3038   22.6050 O   0  0  0  0  0  0  0  0  0  0  0  0
    3.6028    1.4009   21.1630 C   0  0  0  0  0  0  0  0  0  0  0  0
    2.9875    2.0150   19.9407 C   0  0  0  0  0  0  0  0  0  0  0  0
    3.6617    1.8706   18.6085 C   0  0  0  0  0  0  0  0  0  0  0  0
    4.9511    1.1121   18.4988 C   0  0  0  0  0  0  0  0  0  0  0  0
    5.6253    0.9677   17.1666 F   0  0  0  0  0  0  0  0  0  0  0  0
    5.5664    0.4980   19.7212 C   0  0  0  0  0  0  0  0  0  0  0  0
    4.8922    0.6424   21.0533 C   0  0  0  0  0  0  0  0  0  0  0  0
    8.4979   -2.0475   23.6225 C   0  0  0  0  0  0  0  0  0  0  0  0
    8.1499   -3.3912   24.1910 C   0  0  0  0  0  0  0  0  0  0  0  0
    9.1730   -4.1642   24.9692 N   0  0  0  0  0  0  0  0  0  0  0  0
   10.5443   -3.5935   25.1788 C   0  0  0  0  0  0  0  0  0  0  0  0
   10.8923   -2.2497   24.6103 C   0  0  0  0  0  0  0  0  0  0  0  0
   12.2636   -1.6790   24.8199 C   0  0  0  0  0  0  0  0  0  0  0  0
   12.6116   -0.3352   24.2514 C   0  0  0  0  0  0  0  0  0  0  0  0
   11.5884    0.4377   23.4733 C   0  0  0  0  0  0  0  0  0  0  0  0
   10.2172   -0.1330   23.2636 C   0  0  0  0  0  0  0  0  0  0  0  0
    9.8692   -1.4767   23.8321 C   0  0  0  0  0  0  0  0  0  0  0  0
    2.8697    1.0756   25.0499 C   0  0  0  0  0  0  0  0  0  0  0  0
    1.6892    0.2151   25.3902 C   0  0  0  0  0  0  0  0  0  0  0  0
    1.6585   -0.8700   26.4254 C   0  0  0  0  0  0  0  0  0  0  0  0
    0.2825   -1.4672   26.4302 N   0  0  0  0  0  0  0  0  0  0  0  0
   -0.5372   -0.7512   25.3979 C   0  0  0  0  0  0  0  0  0  0  0  0
    0.3323    0.2885   24.7552 N   0  0  0  0  0  0  0  0  0  0  0  0
   -0.0281   -2.2004   27.0092 H   0  0  0  0  0  0  0  0  0  0  0  0
    0.0601    0.9100   24.0418 H   0  0  0  0  0  0  0  0  0  0  0  0
  2  1  1  0  0  0
  2  3  1  0  0  0
  3  4  1  0  0  0
  4 19  1  0  0  0
 19 20  2  0  0  0
 20 21  1  0  0  0
 21 22  2  0  0  0
 22 23  1  0  0  0
 23 24  2  0  0  0
 24 25  1  0  0  0
 25 26  2  0  0  0
 26 27  1  0  0  0
 27 28  2  0  0  0
  4  5  1  0  0  0
  5  6  2  0  0  0
  5  7  1  0  0  0
  7  8  1  0  0  0
  8  9  1  0  0  0
  9 29  1  0  0  0
 29 30  1  0  0  0
 30 31  2  0  0  0
 31 32  1  0  0  0
 32 33  2  0  0  0
 33 34  1  0  0  0
  9 10  1  0  0  0
 10 11  2  0  0  0
 10 12  1  0  0  0
 12 13  2  0  0  0
 13 14  1  0  0  0
 14 15  2  0  0  0
 15 16  1  0  0  0
 15 17  1  0  0  0
 17 18  2  0  0  0
  7  2  1  0  0  0
 34 30  1  0  0  0
 18 12  1  0  0  0
 28 19  1  0  0  0
 18  7  1  0  0  0
 28 23  1  0  0  0
 32 35  1  0  0  0
 34 36  1  0  0  0
M  CHG 1  32   1
M  END
> <minimizedAffinity>
-7.81471

> <CNNscore>
0.2296775728

> <CNNaffinity>
6.1531691551

> <CNN_VS>
1.4132449627

> <CNNaffinity_variance>
0.0888138339

$$$$



 36 41  0  0  0  0  0  0  0  0999 V2000
   10.6442    0.0245   22.7866 C   0  0  0  0  0  0  0  0  0  0  0  0
    9.2097   -0.3428   22.5471 C   0  0  0  0  0  0  0  0  0  0  0  0
    8.6772    0.2661   21.2839 C   0  0  0  0  0  0  0  0  0  0  0  0
    7.2458   -0.1565   21.1332 N   0  0  0  0  0  0  0  0  0  0  0  0
    6.8938   -1.0266   22.3033 C   0  0  0  0  0  0  0  0  0  0  0  0
    5.5619   -1.6688   22.5552 O   0  0  0  0  0  0  0  0  0  0  0  0
    8.1076   -1.1417   23.1771 C   0  0  0  0  0  0  0  0  0  0  0  0
    6.9155   -1.8965   23.6862 C   0  0  0  0  0  0  0  0  0  0  0  0
    7.0104   -2.6741   24.9654 N   0  0  0  0  0  0  0  0  0  0  0  0
    8.2974   -2.6969   25.7355 C   0  0  0  0  0  0  0  0  0  0  0  0
    8.3923   -3.4744   27.0147 O   0  0  0  0  0  0  0  0  0  0  0  0
    9.4895   -1.9421   25.2264 C   0  0  0  0  0  0  0  0  0  0  0  0
   10.7765   -1.9649   25.9965 C   0  0  0  0  0  0  0  0  0  0  0  0
   11.9686   -1.2101   25.4874 C   0  0  0  0  0  0  0  0  0  0  0  0
   11.8737   -0.4326   24.2082 C   0  0  0  0  0  0  0  0  0  0  0  0
   13.0659    0.3222   23.6991 F   0  0  0  0  0  0  0  0  0  0  0  0
   10.5867   -0.4098   23.4381 C   0  0  0  0  0  0  0  0  0  0  0  0
    9.3946   -1.1645   23.9472 C   0  0  0  0  0  0  0  0  0  0  0  0
    6.3277    0.2241   20.0097 C   0  0  0  0  0  0  0  0  0  0  0  0
    6.4942   -0.4060   18.6588 C   0  0  0  0  0  0  0  0  0  0  0  0
    5.5761   -0.0254   17.5354 N   0  0  0  0  0  0  0  0  0  0  0  0
    4.4915    0.9855   17.7629 C   0  0  0  0  0  0  0  0  0  0  0  0
    4.3250    1.6157   19.1139 C   0  0  0  0  0  0  0  0  0  0  0  0
    3.2403    2.6266   19.3414 C   0  0  0  0  0  0  0  0  0  0  0  0
    3.0739    3.2567   20.6924 C   0  0  0  0  0  0  0  0  0  0  0  0
    3.9920    2.8761   21.8158 C   0  0  0  0  0  0  0  0  0  0  0  0
    5.0766    1.8652   21.5883 C   0  0  0  0  0  0  0  0  0  0  0  0
    5.2431    1.2350   20.2374 C   0  0  0  0  0  0  0  0  0  0  0  0
    5.8182   -3.4288   25.4745 C   0  0  0  0  0  0  0  0  0  0  0  0
    5.6533   -4.8824   25.1432 C   0  0  0  0  0  0  0  0  0  0  0  0
    6.4411   -5.6489   24.1224 C   0  0  0  0  0  0  0  0  0  0  0  0
    5.9463   -7.0649   24.1227 N   0  0  0  0  0  0  0  0  0  0  0  0
    4.8527   -7.1736   25.1437 C   0  0  0  0  0  0  0  0  0  0  0  0
    4.6716   -5.8248   25.7743 N   0  0  0  0  0  0  0  0  0  0  0  0
    6.2806   -7.7948   23.5529 H   0  0  0  0  0  0  0  0  0  0  0  0
    4.0225   -5.5978   26.4788 H   0  0  0  0  0  0  0  0  0  0  0  0
  2  1  1  0  0  0
  2  3  1  0  0  0
  3  4  1  0  0  0
  4 19  1  0  0  0
 19 20  2  0  0  0
 20 21  1  0  0  0
 21 22  2  0  0  0
 22 23  1  0  0  0
 23 24  2  0  0  0
 24 25  1  0  0  0
 25 26  2  0  0  0
 26 27  1  0  0  0
 27 28  2  0  0  0
  4  5  1  0  0  0
  5  6  2  0  0  0
  5  7  1  0  0  0
  7  8  1  0  0  0
  8  9  1  0  0  0
  9 29  1  0  0  0
 29 30  1  0  0  0
 30 31  2  0  0  0
 31 32  1  0  0  0
 32 33  2  0  0  0
 33 34  1  0  0  0
  9 10  1  0  0  0
 10 11  2  0  0  0
 10 12  1  0  0  0
 12 13  2  0  0  0
 13 14  1  0  0  0
 14 15  2  0  0  0
 15 16  1  0  0  0
 15 17  1  0  0  0
 17 18  2  0  0  0
  7  2  1  0  0  0
 34 30  1  0  0  0
 18 12  1  0  0  0
 28 19  1  0  0  0
 18  7  1  0  0  0
 28 23  1  0  0  0
 32 35  1  0  0  0
 34 36  1  0  0  0
M  CHG 1  32   1
M  END
> <minimizedAffinity>
-9.55288

> <CNNscore>
0.2270073146

> <CNNaffinity>
6.4846792221

> <CNN_VS>
1.4720696211

> <CNNaffinity_variance>
0.0875809342

$$$$
