


 36 41  0  0  0  0  0  0  0  0999 V2000
   -7.2954   -0.2609  -21.3047 C   0  0  0  0  0  0  0  0  0  0  0  0
   -8.5103   -0.3697  -22.1778 C   0  0  0  0  0  0  0  0  0  0  0  0
   -9.2838    0.9145  -22.2270 C   0  0  0  0  0  0  0  0  0  0  0  0
  -10.4717    0.7063  -23.1189 N   0  0  0  0  0  0  0  0  0  0  0  0
  -10.4324   -0.7066  -23.6209 C   0  0  0  0  0  0  0  0  0  0  0  0
  -11.4302   -1.3428  -24.5427 O   0  0  0  0  0  0  0  0  0  0  0  0
   -9.2202   -1.3717  -23.0393 C   0  0  0  0  0  0  0  0  0  0  0  0
  -10.0353   -2.2610  -23.9307 C   0  0  0  0  0  0  0  0  0  0  0  0
   -9.6080   -3.6790  -24.1688 N   0  0  0  0  0  0  0  0  0  0  0  0
   -8.3656   -4.2077  -23.5155 C   0  0  0  0  0  0  0  0  0  0  0  0
   -7.9383   -5.6257  -23.7535 O   0  0  0  0  0  0  0  0  0  0  0  0
   -7.5504   -3.3184  -22.6240 C   0  0  0  0  0  0  0  0  0  0  0  0
   -6.3080   -3.8470  -21.9707 C   0  0  0  0  0  0  0  0  0  0  0  0
   -5.4929   -2.9577  -21.0793 C   0  0  0  0  0  0  0  0  0  0  0  0
   -5.9202   -1.5397  -20.8412 C   0  0  0  0  0  0  0  0  0  0  0  0
   -5.1050   -0.6504  -19.9497 F   0  0  0  0  0  0  0  0  0  0  0  0
   -7.1626   -1.0110  -21.4945 C   0  0  0  0  0  0  0  0  0  0  0  0
   -7.9777   -1.9004  -22.3859 C   0  0  0  0  0  0  0  0  0  0  0  0
  -11.5157    1.7311  -23.4505 C   0  0  0  0  0  0  0  0  0  0  0  0
  -12.9376    1.5186  -23.0231 C   0  0  0  0  0  0  0  0  0  0  0  0
  -13.9816    2.5434  -23.3547 N   0  0  0  0  0  0  0  0  0  0  0  0
  -13.6035    3.7806  -24.1138 C   0  0  0  0  0  0  0  0  0  0  0  0
  -12.1814    3.9931  -24.5412 C   0  0  0  0  0  0  0  0  0  0  0  0
  -11.8034    5.2305  -25.3003 C   0  0  0  0  0  0  0  0  0  0  0  0
  -10.3813    5.4429  -25.7277 C   0  0  0  0  0  0  0  0  0  0  0  0
   -9.3374    4.4181  -25.3960 C   0  0  0  0  0  0  0  0  0  0  0  0
   -9.7155    3.1809  -24.6370 C   0  0  0  0  0  0  0  0  0  0  0  0
  -11.1375    2.9684  -24.2096 C   0  0  0  0  0  0  0  0  0  0  0  0
  -10.4232   -4.5684  -25.0602 C   0  0  0  0  0  0  0  0  0  0  0  0
   -9.7462   -5.4139  -26.0978 C   0  0  0  0  0  0  0  0  0  0  0  0
   -9.7840   -6.9113  -26.1767 C   0  0  0  0  0  0  0  0  0  0  0  0
   -8.9737   -7.3334  -27.3663 N   0  0  0  0  0  0  0  0  0  0  0  0
   -8.4350   -6.0968  -28.0227 C   0  0  0  0  0  0  0  0  0  0  0  0
   -8.9124   -4.9105  -27.2386 N   0  0  0  0  0  0  0  0  0  0  0  0
   -8.8220   -8.2595  -27.6641 H   0  0  0  0  0  0  0  0  0  0  0  0
   -8.7135   -3.9671  -27.4378 H   0  0  0  0  0  0  0  0  0  0  0  0
  2  1  1  0  0  0
  2  3  1  0  0  0
  3  4  1  0  0  0
  4 19  1  0  0  0
 19 20  2  0  0  0
 20 21  1  0  0  0
 21 22  2  0  0  0
 22 23  1  0  0  0
 23 24  2  0  0  0
 24 25  1  0  0  0
 25 26  2  0  0  0
 26 27  1  0  0  0
 27 28  2  0  0  0
  4  5  1  0  0  0
  5  6  2  0  0  0
  5  7  1  0  0  0
  7  8  1  0  0  0
  8  9  1  0  0  0
  9 29  1  0  0  0
 29 30  1  0  0  0
 30 31  2  0  0  0
 31 32  1  0  0  0
 32 33  2  0  0  0
 33 34  1  0  0  0
  9 10  1  0  0  0
 10 11  2  0  0  0
 10 12  1  0  0  0
 12 13  2  0  0  0
 13 14  1  0  0  0
 14 15  2  0  0  0
 15 16  1  0  0  0
 15 17  1  0  0  0
 17 18  2  0  0  0
  7  2  1  0  0  0
 34 30  1  0  0  0
 18 12  1  0  0  0
 28 19  1  0  0  0
 18  7  1  0  0  0
 28 23  1  0  0  0
 32 35  1  0  0  0
 34 36  1  0  0  0
M  CHG 1  32   1
M  END
> <minimizedAffinity>
-9.23612

> <CNNscore>
0.5823516250

> <CNNaffinity>
6.4232039452

> <CNN_VS>
3.7405631542

> <CNNaffinity_variance>
0.2551348805

$$$$



 36 41  0  0  0  0  0  0  0  0999 V2000
   -5.8363   -5.2934  -23.3292 C   0  0  0  0  0  0  0  0  0  0  0  0
   -6.4949   -4.0969  -22.7090 C   0  0  0  0  0  0  0  0  0  0  0  0
   -5.6051   -3.4216  -21.7079 C   0  0  0  0  0  0  0  0  0  0  0  0
   -6.3475   -2.2451  -21.1470 N   0  0  0  0  0  0  0  0  0  0  0  0
   -7.6962   -2.1933  -21.8014 C   0  0  0  0  0  0  0  0  0  0  0  0
   -8.7660   -1.1756  -21.5369 O   0  0  0  0  0  0  0  0  0  0  0  0
   -7.7873   -3.3377  -22.7668 C   0  0  0  0  0  0  0  0  0  0  0  0
   -9.0187   -2.4827  -22.7162 C   0  0  0  0  0  0  0  0  0  0  0  0
  -10.1956   -2.8105  -23.5866 N   0  0  0  0  0  0  0  0  0  0  0  0
  -10.1411   -3.9932  -24.5075 C   0  0  0  0  0  0  0  0  0  0  0  0
  -11.3180   -4.3209  -25.3779 O   0  0  0  0  0  0  0  0  0  0  0  0
   -8.9097   -4.8482  -24.5581 C   0  0  0  0  0  0  0  0  0  0  0  0
   -8.8551   -6.0310  -25.4790 C   0  0  0  0  0  0  0  0  0  0  0  0
   -7.6237   -6.8860  -25.5296 C   0  0  0  0  0  0  0  0  0  0  0  0
   -6.4469   -6.5582  -24.6592 C   0  0  0  0  0  0  0  0  0  0  0  0
   -5.2154   -7.4133  -24.7098 F   0  0  0  0  0  0  0  0  0  0  0  0
   -6.5014   -5.3755  -23.7383 C   0  0  0  0  0  0  0  0  0  0  0  0
   -7.7328   -4.5205  -23.6878 C   0  0  0  0  0  0  0  0  0  0  0  0
   -5.8318   -1.2884  -20.1131 C   0  0  0  0  0  0  0  0  0  0  0  0
   -6.3637   -1.3403  -18.7117 C   0  0  0  0  0  0  0  0  0  0  0  0
   -5.8481   -0.3836  -17.6779 N   0  0  0  0  0  0  0  0  0  0  0  0
   -4.8004    0.6249  -18.0456 C   0  0  0  0  0  0  0  0  0  0  0  0
   -4.2684    0.6768  -19.4472 C   0  0  0  0  0  0  0  0  0  0  0  0
   -3.2207    1.6854  -19.8149 C   0  0  0  0  0  0  0  0  0  0  0  0
   -2.6888    1.7371  -21.2165 C   0  0  0  0  0  0  0  0  0  0  0  0
   -3.2045    0.7805  -22.2502 C   0  0  0  0  0  0  0  0  0  0  0  0
   -4.2522   -0.2281  -21.8824 C   0  0  0  0  0  0  0  0  0  0  0  0
   -4.7841   -0.2799  -20.4810 C   0  0  0  0  0  0  0  0  0  0  0  0
  -11.4271   -1.9554  -23.5360 C   0  0  0  0  0  0  0  0  0  0  0  0
  -11.3109   -0.4650  -23.6593 C   0  0  0  0  0  0  0  0  0  0  0  0
  -12.4127    0.5270  -23.4319 C   0  0  0  0  0  0  0  0  0  0  0  0
  -11.8553    1.9002  -23.6636 N   0  0  0  0  0  0  0  0  0  0  0  0
  -10.4088    1.7568  -24.0342 C   0  0  0  0  0  0  0  0  0  0  0  0
  -10.0724    0.2950  -24.0315 N   0  0  0  0  0  0  0  0  0  0  0  0
  -12.3516    2.7469  -23.5861 H   0  0  0  0  0  0  0  0  0  0  0  0
   -9.1931   -0.0968  -24.2377 H   0  0  0  0  0  0  0  0  0  0  0  0
  2  1  1  0  0  0
  2  3  1  0  0  0
  3  4  1  0  0  0
  4 19  1  0  0  0
 19 20  2  0  0  0
 20 21  1  0  0  0
 21 22  2  0  0  0
 22 23  1  0  0  0
 23 24  2  0  0  0
 24 25  1  0  0  0
 25 26  2  0  0  0
 26 27  1  0  0  0
 27 28  2  0  0  0
  4  5  1  0  0  0
  5  6  2  0  0  0
  5  7  1  0  0  0
  7  8  1  0  0  0
  8  9  1  0  0  0
  9 29  1  0  0  0
 29 30  1  0  0  0
 30 31  2  0  0  0
 31 32  1  0  0  0
 32 33  2  0  0  0
 33 34  1  0  0  0
  9 10  1  0  0  0
 10 11  2  0  0  0
 10 12  1  0  0  0
 12 13  2  0  0  0
 13 14  1  0  0  0
 14 15  2  0  0  0
 15 16  1  0  0  0
 15 17  1  0  0  0
 17 18  2  0  0  0
  7  2  1  0  0  0
 34 30  1  0  0  0
 18 12  1  0  0  0
 28 19  1  0  0  0
 18  7  1  0  0  0
 28 23  1  0  0  0
 32 35  1  0  0  0
 34 36  1  0  0  0
M  CHG 1  32   1
M  END
> <minimizedAffinity>
-8.66311

> <CNNscore>
0.3186573684

> <CNNaffinity>
6.1515130997

> <CNN_VS>
1.9602249861

> <CNNaffinity_variance>
0.0926205665

$$$$



 36 41  0  0  0  0  0  0  0  0999 V2000
  -11.7423   -2.0078  -23.0899 C   0  0  0  0  0  0  0  0  0  0  0  0
  -10.2551   -1.9449  -23.2752 C   0  0  0  0  0  0  0  0  0  0  0  0
   -9.6087   -3.2859  -23.0911 C   0  0  0  0  0  0  0  0  0  0  0  0
   -8.1319   -3.1205  -23.2951 N   0  0  0  0  0  0  0  0  0  0  0  0
   -7.8656   -1.6773  -23.6053 C   0  0  0  0  0  0  0  0  0  0  0  0
   -6.5228   -1.0677  -23.8796 O   0  0  0  0  0  0  0  0  0  0  0  0
   -9.1778   -0.9507  -23.5930 C   0  0  0  0  0  0  0  0  0  0  0  0
   -7.9987   -0.0756  -23.8996 C   0  0  0  0  0  0  0  0  0  0  0  0
   -8.1985    1.3881  -24.1595 N   0  0  0  0  0  0  0  0  0  0  0  0
   -9.5774    1.9768  -24.1127 C   0  0  0  0  0  0  0  0  0  0  0  0
   -9.7772    3.4406  -24.3726 O   0  0  0  0  0  0  0  0  0  0  0  0
  -10.7565    1.1017  -23.8061 C   0  0  0  0  0  0  0  0  0  0  0  0
  -12.1354    1.6904  -23.7594 C   0  0  0  0  0  0  0  0  0  0  0  0
  -13.3144    0.8153  -23.4528 C   0  0  0  0  0  0  0  0  0  0  0  0
  -13.1146   -0.6485  -23.1930 C   0  0  0  0  0  0  0  0  0  0  0  0
  -14.2937   -1.5235  -22.8864 F   0  0  0  0  0  0  0  0  0  0  0  0
  -11.7358   -1.2371  -23.2397 C   0  0  0  0  0  0  0  0  0  0  0  0
  -10.5567   -0.3620  -23.5463 C   0  0  0  0  0  0  0  0  0  0  0  0
   -7.1022   -4.2075  -23.2048 C   0  0  0  0  0  0  0  0  0  0  0  0
   -6.3224   -4.3984  -21.9378 C   0  0  0  0  0  0  0  0  0  0  0  0
   -5.2927   -5.4854  -21.8474 N   0  0  0  0  0  0  0  0  0  0  0  0
   -5.0428   -6.3814  -23.0242 C   0  0  0  0  0  0  0  0  0  0  0  0
   -5.8226   -6.1904  -24.2913 C   0  0  0  0  0  0  0  0  0  0  0  0
   -5.5726   -7.0864  -25.4680 C   0  0  0  0  0  0  0  0  0  0  0  0
   -6.3525   -6.8954  -26.7351 C   0  0  0  0  0  0  0  0  0  0  0  0
   -7.3822   -5.8084  -26.8253 C   0  0  0  0  0  0  0  0  0  0  0  0
   -7.6321   -4.9124  -25.6486 C   0  0  0  0  0  0  0  0  0  0  0  0
   -6.8523   -5.1034  -24.3816 C   0  0  0  0  0  0  0  0  0  0  0  0
   -7.0194    2.2632  -24.4661 C   0  0  0  0  0  0  0  0  0  0  0  0
   -6.6569    3.3853  -23.5389 C   0  0  0  0  0  0  0  0  0  0  0  0
   -5.2930    3.9875  -23.3746 C   0  0  0  0  0  0  0  0  0  0  0  0
   -5.3878    5.0765  -22.3474 N   0  0  0  0  0  0  0  0  0  0  0  0
   -6.8104    5.1473  -21.8769 C   0  0  0  0  0  0  0  0  0  0  0  0
   -7.5947    4.1021  -22.6133 N   0  0  0  0  0  0  0  0  0  0  0  0
   -4.6465    5.6449  -22.0367 H   0  0  0  0  0  0  0  0  0  0  0  0
   -8.5562    3.9187  -22.5077 H   0  0  0  0  0  0  0  0  0  0  0  0
  2  1  1  0  0  0
  2  3  1  0  0  0
  3  4  1  0  0  0
  4 19  1  0  0  0
 19 20  2  0  0  0
 20 21  1  0  0  0
 21 22  2  0  0  0
 22 23  1  0  0  0
 23 24  2  0  0  0
 24 25  1  0  0  0
 25 26  2  0  0  0
 26 27  1  0  0  0
 27 28  2  0  0  0
  4  5  1  0  0  0
  5  6  2  0  0  0
  5  7  1  0  0  0
  7  8  1  0  0  0
  8  9  1  0  0  0
  9 29  1  0  0  0
 29 30  1  0  0  0
 30 31  2  0  0  0
 31 32  1  0  0  0
 32 33  2  0  0  0
 33 34  1  0  0  0
  9 10  1  0  0  0
 10 11  2  0  0  0
 10 12  1  0  0  0
 12 13  2  0  0  0
 13 14  1  0  0  0
 14 15  2  0  0  0
 15 16  1  0  0  0
 15 17  1  0  0  0
 17 18  2  0  0  0
  7  2  1  0  0  0
 34 30  1  0  0  0
 18 12  1  0  0  0
 28 19  1  0  0  0
 18  7  1  0  0  0
 28 23  1  0  0  0
 32 35  1  0  0  0
 34 36  1  0  0  0
M  CHG 1  32   1
M  END
> <minimizedAffinity>
-8.17465

> <CNNscore>
0.2760646045

> <CNNaffinity>
6.2713050842

> <CNN_VS>
1.7312853336

> <CNNaffinity_variance>
0.2554961443

$$$$



 36 41  0  0  0  0  0  0  0  0999 V2000
   -7.4316   -5.0436  -23.3150 C   0  0  0  0  0  0  0  0  0  0  0  0
   -7.1562   -3.5774  -23.1580 C   0  0  0  0  0  0  0  0  0  0  0  0
   -6.6939   -3.2378  -21.7720 C   0  0  0  0  0  0  0  0  0  0  0  0
   -6.4462   -1.7595  -21.7152 N   0  0  0  0  0  0  0  0  0  0  0  0
   -6.7554   -1.1855  -23.0661 C   0  0  0  0  0  0  0  0  0  0  0  0
   -6.6452    0.2586  -23.4567 O   0  0  0  0  0  0  0  0  0  0  0  0
   -7.1943   -2.3090  -23.9578 C   0  0  0  0  0  0  0  0  0  0  0  0
   -7.1826   -0.9671  -24.6281 C   0  0  0  0  0  0  0  0  0  0  0  0
   -7.5882   -0.8439  -26.0669 N   0  0  0  0  0  0  0  0  0  0  0  0
   -8.0055   -2.0625  -26.8355 C   0  0  0  0  0  0  0  0  0  0  0  0
   -8.4111   -1.9392  -28.2744 O   0  0  0  0  0  0  0  0  0  0  0  0
   -8.0172   -3.4044  -26.1653 C   0  0  0  0  0  0  0  0  0  0  0  0
   -8.4345   -4.6230  -26.9339 C   0  0  0  0  0  0  0  0  0  0  0  0
   -8.4463   -5.9649  -26.2637 C   0  0  0  0  0  0  0  0  0  0  0  0
   -8.0406   -6.0881  -24.8248 C   0  0  0  0  0  0  0  0  0  0  0  0
   -8.0524   -7.4301  -24.1546 F   0  0  0  0  0  0  0  0  0  0  0  0
   -7.6233   -4.8695  -24.0562 C   0  0  0  0  0  0  0  0  0  0  0  0
   -7.6116   -3.5277  -24.7265 C   0  0  0  0  0  0  0  0  0  0  0  0
   -5.9725   -0.9903  -20.5178 C   0  0  0  0  0  0  0  0  0  0  0  0
   -6.7071   -1.1033  -19.2150 C   0  0  0  0  0  0  0  0  0  0  0  0
   -6.2334   -0.3341  -18.0176 N   0  0  0  0  0  0  0  0  0  0  0  0
   -5.0249    0.5482  -18.1231 C   0  0  0  0  0  0  0  0  0  0  0  0
   -4.2902    0.6613  -19.4260 C   0  0  0  0  0  0  0  0  0  0  0  0
   -3.0817    1.5437  -19.5314 C   0  0  0  0  0  0  0  0  0  0  0  0
   -2.3471    1.6567  -20.8343 C   0  0  0  0  0  0  0  0  0  0  0  0
   -2.8209    0.8875  -22.0316 C   0  0  0  0  0  0  0  0  0  0  0  0
   -4.0293    0.0051  -21.9262 C   0  0  0  0  0  0  0  0  0  0  0  0
   -4.7640   -0.1079  -20.6234 C   0  0  0  0  0  0  0  0  0  0  0  0
   -7.5764    0.4981  -26.7371 C   0  0  0  0  0  0  0  0  0  0  0  0
   -8.5113    1.5758  -26.2741 C   0  0  0  0  0  0  0  0  0  0  0  0
   -9.2578    1.5965  -24.9733 C   0  0  0  0  0  0  0  0  0  0  0  0
  -10.0716    2.8556  -24.9258 N   0  0  0  0  0  0  0  0  0  0  0  0
   -9.8280    3.6132  -26.1973 C   0  0  0  0  0  0  0  0  0  0  0  0
   -8.8637    2.8223  -27.0306 N   0  0  0  0  0  0  0  0  0  0  0  0
  -10.6620    3.1356  -24.1894 H   0  0  0  0  0  0  0  0  0  0  0  0
   -8.5220    3.0766  -27.9182 H   0  0  0  0  0  0  0  0  0  0  0  0
  2  1  1  0  0  0
  2  3  1  0  0  0
  3  4  1  0  0  0
  4 19  1  0  0  0
 19 20  2  0  0  0
 20 21  1  0  0  0
 21 22  2  0  0  0
 22 23  1  0  0  0
 23 24  2  0  0  0
 24 25  1  0  0  0
 25 26  2  0  0  0
 26 27  1  0  0  0
 27 28  2  0  0  0
  4  5  1  0  0  0
  5  6  2  0  0  0
  5  7  1  0  0  0
  7  8  1  0  0  0
  8  9  1  0  0  0
  9 29  1  0  0  0
 29 30  1  0  0  0
 30 31  2  0  0  0
 31 32  1  0  0  0
 32 33  2  0  0  0
 33 34  1  0  0  0
  9 10  1  0  0  0
 10 11  2  0  0  0
 10 12  1  0  0  0
 12 13  2  0  0  0
 13 14  1  0  0  0
 14 15  2  0  0  0
 15 16  1  0  0  0
 15 17  1  0  0  0
 17 18  2  0  0  0
  7  2  1  0  0  0
 34 30  1  0  0  0
 18 12  1  0  0  0
 28 19  1  0  0  0
 18  7  1  0  0  0
 28 23  1  0  0  0
 32 35  1  0  0  0
 34 36  1  0  0  0
M  CHG 1  32   1
M  END
> <minimizedAffinity>
-8.21838

> <CNNscore>
0.2054448724

> <CNNaffinity>
6.1184549332

> <CNN_VS>
1.2570052147

> <CNNaffinity_variance>
0.0996658057

$$$$



 36 41  0  0  0  0  0  0  0  0999 V2000
   -9.7559   -1.1288  -23.1020 C   0  0  0  0  0  0  0  0  0  0  0  0
   -9.2258    0.2553  -23.3330 C   0  0  0  0  0  0  0  0  0  0  0  0
   -7.7265    0.2945  -23.3059 C   0  0  0  0  0  0  0  0  0  0  0  0
   -7.2955    1.7112  -23.5449 N   0  0  0  0  0  0  0  0  0  0  0  0
   -8.5284    2.5475  -23.7198 C   0  0  0  0  0  0  0  0  0  0  0  0
   -8.5624    4.0244  -23.9800 O   0  0  0  0  0  0  0  0  0  0  0  0
   -9.7214    1.6477  -23.5888 C   0  0  0  0  0  0  0  0  0  0  0  0
  -10.0663    3.0841  -23.8490 C   0  0  0  0  0  0  0  0  0  0  0  0
  -11.5027    3.5032  -23.9552 N   0  0  0  0  0  0  0  0  0  0  0  0
  -12.5941    2.4858  -23.8013 C   0  0  0  0  0  0  0  0  0  0  0  0
  -14.0305    2.9049  -23.9075 O   0  0  0  0  0  0  0  0  0  0  0  0
  -12.2492    1.0493  -23.5411 C   0  0  0  0  0  0  0  0  0  0  0  0
  -13.3406    0.0320  -23.3872 C   0  0  0  0  0  0  0  0  0  0  0  0
  -12.9957   -1.4044  -23.1271 C   0  0  0  0  0  0  0  0  0  0  0  0
  -11.5593   -1.8235  -23.0209 C   0  0  0  0  0  0  0  0  0  0  0  0
  -11.2144   -3.2600  -22.7608 F   0  0  0  0  0  0  0  0  0  0  0  0
  -10.4679   -0.8061  -23.1748 C   0  0  0  0  0  0  0  0  0  0  0  0
  -10.8128    0.6303  -23.4349 C   0  0  0  0  0  0  0  0  0  0  0  0
   -5.8802    2.2050  -23.5995 C   0  0  0  0  0  0  0  0  0  0  0  0
   -5.3779    2.9080  -24.8255 C   0  0  0  0  0  0  0  0  0  0  0  0
   -3.9625    3.4017  -24.8801 N   0  0  0  0  0  0  0  0  0  0  0  0
   -3.0495    3.1924  -23.7086 C   0  0  0  0  0  0  0  0  0  0  0  0
   -3.5519    2.4893  -22.4824 C   0  0  0  0  0  0  0  0  0  0  0  0
   -2.6388    2.2800  -21.3108 C   0  0  0  0  0  0  0  0  0  0  0  0
   -3.1412    1.5769  -20.0848 C   0  0  0  0  0  0  0  0  0  0  0  0
   -4.5565    1.0832  -20.0303 C   0  0  0  0  0  0  0  0  0  0  0  0
   -5.4695    1.2926  -21.2018 C   0  0  0  0  0  0  0  0  0  0  0  0
   -4.9672    1.9956  -22.4279 C   0  0  0  0  0  0  0  0  0  0  0  0
  -11.8476    4.9397  -24.2153 C   0  0  0  0  0  0  0  0  0  0  0  0
  -12.5046    5.3314  -25.5056 C   0  0  0  0  0  0  0  0  0  0  0  0
  -12.0958    4.8791  -26.8760 C   0  0  0  0  0  0  0  0  0  0  0  0
  -13.0244    5.5124  -27.8694 N   0  0  0  0  0  0  0  0  0  0  0  0
  -14.0071    6.3562  -27.1128 C   0  0  0  0  0  0  0  0  0  0  0  0
  -13.6858    6.2444  -25.6519 N   0  0  0  0  0  0  0  0  0  0  0  0
  -12.9941    5.3949  -28.8464 H   0  0  0  0  0  0  0  0  0  0  0  0
  -14.1659    6.6916  -24.9179 H   0  0  0  0  0  0  0  0  0  0  0  0
  2  1  1  0  0  0
  2  3  1  0  0  0
  3  4  1  0  0  0
  4 19  1  0  0  0
 19 20  2  0  0  0
 20 21  1  0  0  0
 21 22  2  0  0  0
 22 23  1  0  0  0
 23 24  2  0  0  0
 24 25  1  0  0  0
 25 26  2  0  0  0
 26 27  1  0  0  0
 27 28  2  0  0  0
  4  5  1  0  0  0
  5  6  2  0  0  0
  5  7  1  0  0  0
  7  8  1  0  0  0
  8  9  1  0  0  0
  9 29  1  0  0  0
 29 30  1  0  0  0
 30 31  2  0  0  0
 31 32  1  0  0  0
 32 33  2  0  0  0
 33 34  1  0  0  0
  9 10  1  0  0  0
 10 11  2  0  0  0
 10 12  1  0  0  0
 12 13  2  0  0  0
 13 14  1  0  0  0
 14 15  2  0  0  0
 15 16  1  0  0  0
 15 17  1  0  0  0
 17 18  2  0  0  0
  7  2  1  0  0  0
 34 30  1  0  0  0
 18 12  1  0  0  0
 28 19  1  0  0  0
 18  7  1  0  0  0
 28 23  1  0  0  0
 32 35  1  0  0  0
 34 36  1  0  0  0
M  CHG 1  32   1
M  END
> <minimizedAffinity>
-8.04808

> <CNNscore>
0.2008271515

> <CNNaffinity>
5.9926548004

> <CNN_VS>
1.2034877539

> <CNNaffinity_variance>
0.0741603002

$$$$



 36 41  0  0  0  0  0  0  0  0999 V2000
  -12.4232   -0.9459  -23.3654 C   0  0  0  0  0  0  0  0  0  0  0  0
  -10.9707   -1.2174  -23.6236 C   0  0  0  0  0  0  0  0  0  0  0  0
  -10.6727   -2.6869  -23.6662 C   0  0  0  0  0  0  0  0  0  0  0  0
   -9.2053   -2.8549  -23.9279 N   0  0  0  0  0  0  0  0  0  0  0  0
   -8.5964   -1.4893  -24.0471 C   0  0  0  0  0  0  0  0  0  0  0  0
   -7.1503   -1.1885  -24.3084 O   0  0  0  0  0  0  0  0  0  0  0  0
   -9.6874   -0.4772  -23.8590 C   0  0  0  0  0  0  0  0  0  0  0  0
   -8.3349    0.1225  -24.1058 C   0  0  0  0  0  0  0  0  0  0  0  0
   -8.1715    1.6131  -24.1461 N   0  0  0  0  0  0  0  0  0  0  0  0
   -9.3605    2.5038  -23.9395 C   0  0  0  0  0  0  0  0  0  0  0  0
   -9.1970    3.9943  -23.9798 O   0  0  0  0  0  0  0  0  0  0  0  0
  -10.7131    1.9041  -23.6928 C   0  0  0  0  0  0  0  0  0  0  0  0
  -11.9021    2.7948  -23.4862 C   0  0  0  0  0  0  0  0  0  0  0  0
  -13.2546    2.1951  -23.2395 C   0  0  0  0  0  0  0  0  0  0  0  0
  -13.4181    0.7045  -23.1992 C   0  0  0  0  0  0  0  0  0  0  0  0
  -14.7707    0.1048  -22.9524 F   0  0  0  0  0  0  0  0  0  0  0  0
  -12.2291   -0.1862  -23.4057 C   0  0  0  0  0  0  0  0  0  0  0  0
  -10.8766    0.4135  -23.6525 C   0  0  0  0  0  0  0  0  0  0  0  0
   -8.4750   -4.1595  -24.0492 C   0  0  0  0  0  0  0  0  0  0  0  0
   -7.6460   -4.6641  -22.9055 C   0  0  0  0  0  0  0  0  0  0  0  0
   -6.9157   -5.9686  -23.0268 N   0  0  0  0  0  0  0  0  0  0  0  0
   -7.0145   -6.7687  -24.2918 C   0  0  0  0  0  0  0  0  0  0  0  0
   -7.8436   -6.2641  -25.4355 C   0  0  0  0  0  0  0  0  0  0  0  0
   -7.9424   -7.0642  -26.7005 C   0  0  0  0  0  0  0  0  0  0  0  0
   -8.7715   -6.5596  -27.8442 C   0  0  0  0  0  0  0  0  0  0  0  0
   -9.5017   -5.2550  -27.7228 C   0  0  0  0  0  0  0  0  0  0  0  0
   -9.4029   -4.4550  -26.4579 C   0  0  0  0  0  0  0  0  0  0  0  0
   -8.5739   -4.9595  -25.3142 C   0  0  0  0  0  0  0  0  0  0  0  0
   -6.8189    2.2128  -24.3928 C   0  0  0  0  0  0  0  0  0  0  0  0
   -5.8916    2.4707  -23.2424 C   0  0  0  0  0  0  0  0  0  0  0  0
   -5.1575    3.7504  -22.9715 C   0  0  0  0  0  0  0  0  0  0  0  0
   -4.3478    3.5649  -21.7225 N   0  0  0  0  0  0  0  0  0  0  0  0
   -4.5814    2.1704  -21.2215 C   0  0  0  0  0  0  0  0  0  0  0  0
   -5.5355    1.4942  -22.1609 N   0  0  0  0  0  0  0  0  0  0  0  0
   -3.7652    4.2398  -21.3050 H   0  0  0  0  0  0  0  0  0  0  0  0
   -5.8695    0.5715  -22.0815 H   0  0  0  0  0  0  0  0  0  0  0  0
  2  1  1  0  0  0
  2  3  1  0  0  0
  3  4  1  0  0  0
  4 19  1  0  0  0
 19 20  2  0  0  0
 20 21  1  0  0  0
 21 22  2  0  0  0
 22 23  1  0  0  0
 23 24  2  0  0  0
 24 25  1  0  0  0
 25 26  2  0  0  0
 26 27  1  0  0  0
 27 28  2  0  0  0
  4  5  1  0  0  0
  5  6  2  0  0  0
  5  7  1  0  0  0
  7  8  1  0  0  0
  8  9  1  0  0  0
  9 29  1  0  0  0
 29 30  1  0  0  0
 30 31  2  0  0  0
 31 32  1  0  0  0
 32 33  2  0  0  0
 33 34  1  0  0  0
  9 10  1  0  0  0
 10 11  2  0  0  0
 10 12  1  0  0  0
 12 13  2  0  0  0
 13 14  1  0  0  0
 14 15  2  0  0  0
 15 16  1  0  0  0
 15 17  1  0  0  0
 17 18  2  0  0  0
  7  2  1  0  0  0
 34 30  1  0  0  0
 18 12  1  0  0  0
 28 19  1  0  0  0
 18  7  1  0  0  0
 28 23  1  0  0  0
 32 35  1  0  0  0
 34 36  1  0  0  0
M  CHG 1  32   1
M  END
> <minimizedAffinity>
-8.12008

> <CNNscore>
0.1908276975

> <CNNaffinity>
6.2077422142

> <CNN_VS>
1.1846091747

> <CNNaffinity_variance>
0.0640820786

$$$$



 36 41  0  0  0  0  0  0  0  0999 V2000
  -11.0211   -2.3370  -24.3464 C   0  0  0  0  0  0  0  0  0  0  0  0
  -10.5894   -0.9847  -23.8616 C   0  0  0  0  0  0  0  0  0  0  0  0
  -11.7078    0.0136  -23.9118 C   0  0  0  0  0  0  0  0  0  0  0  0
  -11.1808    1.3256  -23.4108 N   0  0  0  0  0  0  0  0  0  0  0  0
   -9.7368    1.1381  -23.0509 C   0  0  0  0  0  0  0  0  0  0  0  0
   -8.8193    2.1932  -22.5078 O   0  0  0  0  0  0  0  0  0  0  0  0
   -9.3712   -0.2898  -23.3296 C   0  0  0  0  0  0  0  0  0  0  0  0
   -8.2413    0.5347  -22.7879 C   0  0  0  0  0  0  0  0  0  0  0  0
   -6.8941   -0.0888  -22.5723 N   0  0  0  0  0  0  0  0  0  0  0  0
   -6.6769   -1.5367  -22.8984 C   0  0  0  0  0  0  0  0  0  0  0  0
   -5.3297   -2.1601  -22.6828 O   0  0  0  0  0  0  0  0  0  0  0  0
   -7.8069   -2.3612  -23.4401 C   0  0  0  0  0  0  0  0  0  0  0  0
   -7.5896   -3.8091  -23.7663 C   0  0  0  0  0  0  0  0  0  0  0  0
   -8.7196   -4.6335  -24.3080 C   0  0  0  0  0  0  0  0  0  0  0  0
  -10.0667   -4.0101  -24.5235 C   0  0  0  0  0  0  0  0  0  0  0  0
  -11.1967   -4.8346  -25.0653 F   0  0  0  0  0  0  0  0  0  0  0  0
  -10.2839   -2.5622  -24.1974 C   0  0  0  0  0  0  0  0  0  0  0  0
   -9.1540   -1.7378  -23.6557 C   0  0  0  0  0  0  0  0  0  0  0  0
  -11.9609    2.6011  -23.2907 C   0  0  0  0  0  0  0  0  0  0  0  0
  -12.9952    2.7492  -22.2145 C   0  0  0  0  0  0  0  0  0  0  0  0
  -13.7753    4.0247  -22.0944 N   0  0  0  0  0  0  0  0  0  0  0  0
  -13.5211    5.1522  -23.0505 C   0  0  0  0  0  0  0  0  0  0  0  0
  -12.4867    5.0041  -24.1268 C   0  0  0  0  0  0  0  0  0  0  0  0
  -12.2325    6.1316  -25.0829 C   0  0  0  0  0  0  0  0  0  0  0  0
  -11.1982    5.9834  -26.1591 C   0  0  0  0  0  0  0  0  0  0  0  0
  -10.4182    4.7079  -26.2792 C   0  0  0  0  0  0  0  0  0  0  0  0
  -10.6724    3.5805  -25.3230 C   0  0  0  0  0  0  0  0  0  0  0  0
  -11.7066    3.7285  -24.2469 C   0  0  0  0  0  0  0  0  0  0  0  0
   -5.7641    0.7358  -22.0306 C   0  0  0  0  0  0  0  0  0  0  0  0
   -5.3721    0.6150  -20.5878 C   0  0  0  0  0  0  0  0  0  0  0  0
   -4.2319    1.3263  -19.9215 C   0  0  0  0  0  0  0  0  0  0  0  0
   -4.2066    0.9127  -18.4798 N   0  0  0  0  0  0  0  0  0  0  0  0
   -5.3312   -0.0542  -18.2551 C   0  0  0  0  0  0  0  0  0  0  0  0
   -6.0515   -0.2381  -19.5579 N   0  0  0  0  0  0  0  0  0  0  0  0
   -3.5645    1.2216  -17.8004 H   0  0  0  0  0  0  0  0  0  0  0  0
   -6.8330   -0.8171  -19.7103 H   0  0  0  0  0  0  0  0  0  0  0  0
  2  1  1  0  0  0
  2  3  1  0  0  0
  3  4  1  0  0  0
  4 19  1  0  0  0
 19 20  2  0  0  0
 20 21  1  0  0  0
 21 22  2  0  0  0
 22 23  1  0  0  0
 23 24  2  0  0  0
 24 25  1  0  0  0
 25 26  2  0  0  0
 26 27  1  0  0  0
 27 28  2  0  0  0
  4  5  1  0  0  0
  5  6  2  0  0  0
  5  7  1  0  0  0
  7  8  1  0  0  0
  8  9  1  0  0  0
  9 29  1  0  0  0
 29 30  1  0  0  0
 30 31  2  0  0  0
 31 32  1  0  0  0
 32 33  2  0  0  0
 33 34  1  0  0  0
  9 10  1  0  0  0
 10 11  2  0  0  0
 10 12  1  0  0  0
 12 13  2  0  0  0
 13 14  1  0  0  0
 14 15  2  0  0  0
 15 16  1  0  0  0
 15 17  1  0  0  0
 17 18  2  0  0  0
  7  2  1  0  0  0
 34 30  1  0  0  0
 18 12  1  0  0  0
 28 19  1  0  0  0
 18  7  1  0  0  0
 28 23  1  0  0  0
 32 35  1  0  0  0
 34 36  1  0  0  0
M  CHG 1  32   1
M  END
> <minimizedAffinity>
-8.39612

> <CNNscore>
0.1831746846

> <CNNaffinity>
6.0901327133

> <CNN_VS>
1.1155581474

> <CNNaffinity_variance>
0.1013435498

$$$$



 36 41  0  0  0  0  0  0  0  0999 V2000
   -9.0249   -3.9276  -24.5850 C   0  0  0  0  0  0  0  0  0  0  0  0
   -9.1210   -2.6673  -23.7772 C   0  0  0  0  0  0  0  0  0  0  0  0
  -10.2129   -1.7652  -24.2711 C   0  0  0  0  0  0  0  0  0  0  0  0
  -10.2293   -0.5404  -23.4054 N   0  0  0  0  0  0  0  0  0  0  0  0
   -9.1475   -0.6855  -22.3765 C   0  0  0  0  0  0  0  0  0  0  0  0
   -8.8100    0.3093  -21.3057 O   0  0  0  0  0  0  0  0  0  0  0  0
   -8.4625   -2.0000  -22.6063 C   0  0  0  0  0  0  0  0  0  0  0  0
   -7.9053   -1.2145  -21.4563 C   0  0  0  0  0  0  0  0  0  0  0  0
   -6.7625   -1.7650  -20.6557 N   0  0  0  0  0  0  0  0  0  0  0  0
   -6.1769   -3.1010  -21.0051 C   0  0  0  0  0  0  0  0  0  0  0  0
   -5.0341   -3.6515  -20.2045 O   0  0  0  0  0  0  0  0  0  0  0  0
   -6.7341   -3.8866  -22.1552 C   0  0  0  0  0  0  0  0  0  0  0  0
   -6.1485   -5.2226  -22.5046 C   0  0  0  0  0  0  0  0  0  0  0  0
   -6.7057   -6.0080  -23.6546 C   0  0  0  0  0  0  0  0  0  0  0  0
   -7.8485   -5.4575  -24.4551 C   0  0  0  0  0  0  0  0  0  0  0  0
   -8.4056   -6.2431  -25.6052 F   0  0  0  0  0  0  0  0  0  0  0  0
   -8.4341   -4.1215  -24.1057 C   0  0  0  0  0  0  0  0  0  0  0  0
   -7.8769   -3.3361  -22.9557 C   0  0  0  0  0  0  0  0  0  0  0  0
  -11.1635    0.6250  -23.5442 C   0  0  0  0  0  0  0  0  0  0  0  0
  -12.6121    0.4716  -23.1867 C   0  0  0  0  0  0  0  0  0  0  0  0
  -13.5463    1.6370  -23.3255 N   0  0  0  0  0  0  0  0  0  0  0  0
  -13.0318    2.9557  -23.8218 C   0  0  0  0  0  0  0  0  0  0  0  0
  -11.5830    3.1090  -24.1792 C   0  0  0  0  0  0  0  0  0  0  0  0
  -11.0685    4.4278  -24.6755 C   0  0  0  0  0  0  0  0  0  0  0  0
   -9.6198    4.5810  -25.0329 C   0  0  0  0  0  0  0  0  0  0  0  0
   -8.6857    3.4157  -24.8941 C   0  0  0  0  0  0  0  0  0  0  0  0
   -9.2003    2.0970  -24.3979 C   0  0  0  0  0  0  0  0  0  0  0  0
  -10.6489    1.9437  -24.0404 C   0  0  0  0  0  0  0  0  0  0  0  0
   -6.2053   -0.9795  -19.5056 C   0  0  0  0  0  0  0  0  0  0  0  0
   -5.0403   -0.0594  -19.7203 C   0  0  0  0  0  0  0  0  0  0  0  0
   -4.4104    0.8224  -18.6831 C   0  0  0  0  0  0  0  0  0  0  0  0
   -3.2814    1.5672  -19.3316 N   0  0  0  0  0  0  0  0  0  0  0  0
   -3.2135    1.1458  -20.7697 C   0  0  0  0  0  0  0  0  0  0  0  0
   -4.3005    0.1405  -21.0098 N   0  0  0  0  0  0  0  0  0  0  0  0
   -2.6890    2.2184  -18.8908 H   0  0  0  0  0  0  0  0  0  0  0  0
   -4.4945   -0.3092  -21.8639 H   0  0  0  0  0  0  0  0  0  0  0  0
  2  1  1  0  0  0
  2  3  1  0  0  0
  3  4  1  0  0  0
  4 19  1  0  0  0
 19 20  2  0  0  0
 20 21  1  0  0  0
 21 22  2  0  0  0
 22 23  1  0  0  0
 23 24  2  0  0  0
 24 25  1  0  0  0
 25 26  2  0  0  0
 26 27  1  0  0  0
 27 28  2  0  0  0
  4  5  1  0  0  0
  5  6  2  0  0  0
  5  7  1  0  0  0
  7  8  1  0  0  0
  8  9  1  0  0  0
  9 29  1  0  0  0
 29 30  1  0  0  0
 30 31  2  0  0  0
 31 32  1  0  0  0
 32 33  2  0  0  0
 33 34  1  0  0  0
  9 10  1  0  0  0
 10 11  2  0  0  0
 10 12  1  0  0  0
 12 13  2  0  0  0
 13 14  1  0  0  0
 14 15  2  0  0  0
 15 16  1  0  0  0
 15 17  1  0  0  0
 17 18  2  0  0  0
  7  2  1  0  0  0
 34 30  1  0  0  0
 18 12  1  0  0  0
 28 19  1  0  0  0
 18  7  1  0  0  0
 28 23  1  0  0  0
 32 35  1  0  0  0
 34 36  1  0  0  0
M  CHG 1  32   1
M  END
> <minimizedAffinity>
-9.14793

> <CNNscore>
0.1809651256

> <CNNaffinity>
6.0064373016

> <CNN_VS>
1.0869556665

> <CNNaffinity_variance>
0.1227488071

$$$$



 36 41  0  0  0  0  0  0  0  0999 V2000
   -6.1882    4.3209  -25.9995 C   0  0  0  0  0  0  0  0  0  0  0  0
   -6.7832    3.2630  -25.1181 C   0  0  0  0  0  0  0  0  0  0  0  0
   -8.2811    3.2435  -25.1966 C   0  0  0  0  0  0  0  0  0  0  0  0
   -8.7788    2.1598  -24.2866 N   0  0  0  0  0  0  0  0  0  0  0  0
   -7.5885    1.5096  -23.6458 C   0  0  0  0  0  0  0  0  0  0  0  0
   -7.6252    0.3766  -22.6636 O   0  0  0  0  0  0  0  0  0  0  0  0
   -6.3552    2.1914  -24.1597 C   0  0  0  0  0  0  0  0  0  0  0  0
   -6.0796    1.0872  -23.1827 C   0  0  0  0  0  0  0  0  0  0  0  0
   -4.6664    0.7556  -22.8046 N   0  0  0  0  0  0  0  0  0  0  0  0
   -3.5288    1.5283  -23.4035 C   0  0  0  0  0  0  0  0  0  0  0  0
   -2.1156    1.1967  -23.0254 O   0  0  0  0  0  0  0  0  0  0  0  0
   -3.8044    2.6326  -24.3807 C   0  0  0  0  0  0  0  0  0  0  0  0
   -2.6668    3.4052  -24.9796 C   0  0  0  0  0  0  0  0  0  0  0  0
   -2.9424    4.5094  -25.9567 C   0  0  0  0  0  0  0  0  0  0  0  0
   -4.3555    4.8410  -26.3348 C   0  0  0  0  0  0  0  0  0  0  0  0
   -4.6311    5.9453  -27.3119 F   0  0  0  0  0  0  0  0  0  0  0  0
   -5.4932    4.0684  -25.7358 C   0  0  0  0  0  0  0  0  0  0  0  0
   -5.2176    2.9641  -24.7588 C   0  0  0  0  0  0  0  0  0  0  0  0
  -10.2146    1.7911  -24.0576 C   0  0  0  0  0  0  0  0  0  0  0  0
  -10.6062    0.3496  -23.9216 C   0  0  0  0  0  0  0  0  0  0  0  0
  -12.0420   -0.0191  -23.6926 N   0  0  0  0  0  0  0  0  0  0  0  0
  -13.0862    1.0537  -23.5997 C   0  0  0  0  0  0  0  0  0  0  0  0
  -12.6946    2.4953  -23.7357 C   0  0  0  0  0  0  0  0  0  0  0  0
  -13.7388    3.5682  -23.6428 C   0  0  0  0  0  0  0  0  0  0  0  0
  -13.3471    5.0098  -23.7788 C   0  0  0  0  0  0  0  0  0  0  0  0
  -11.9113    5.3784  -24.0078 C   0  0  0  0  0  0  0  0  0  0  0  0
  -10.8671    4.3055  -24.1008 C   0  0  0  0  0  0  0  0  0  0  0  0
  -11.2587    2.8640  -23.9647 C   0  0  0  0  0  0  0  0  0  0  0  0
   -4.3909   -0.3487  -21.8274 C   0  0  0  0  0  0  0  0  0  0  0  0
   -4.5910   -0.1179  -20.3589 C   0  0  0  0  0  0  0  0  0  0  0  0
   -4.2110    1.1195  -19.6010 C   0  0  0  0  0  0  0  0  0  0  0  0
   -4.5914    0.9181  -18.1641 N   0  0  0  0  0  0  0  0  0  0  0  0
   -5.2065   -0.4438  -18.0339 C   0  0  0  0  0  0  0  0  0  0  0  0
   -5.2063   -1.0841  -19.3904 N   0  0  0  0  0  0  0  0  0  0  0  0
   -4.4603    1.5660  -17.4345 H   0  0  0  0  0  0  0  0  0  0  0  0
   -5.5496   -1.9810  -19.6070 H   0  0  0  0  0  0  0  0  0  0  0  0
  2  1  1  0  0  0
  2  3  1  0  0  0
  3  4  1  0  0  0
  4 19  1  0  0  0
 19 20  2  0  0  0
 20 21  1  0  0  0
 21 22  2  0  0  0
 22 23  1  0  0  0
 23 24  2  0  0  0
 24 25  1  0  0  0
 25 26  2  0  0  0
 26 27  1  0  0  0
 27 28  2  0  0  0
  4  5  1  0  0  0
  5  6  2  0  0  0
  5  7  1  0  0  0
  7  8  1  0  0  0
  8  9  1  0  0  0
  9 29  1  0  0  0
 29 30  1  0  0  0
 30 31  2  0  0  0
 31 32  1  0  0  0
 32 33  2  0  0  0
 33 34  1  0  0  0
  9 10  1  0  0  0
 10 11  2  0  0  0
 10 12  1  0  0  0
 12 13  2  0  0  0
 13 14  1  0  0  0
 14 15  2  0  0  0
 15 16  1  0  0  0
 15 17  1  0  0  0
 17 18  2  0  0  0
  7  2  1  0  0  0
 34 30  1  0  0  0
 18 12  1  0  0  0
 28 19  1  0  0  0
 18  7  1  0  0  0
 28 23  1  0  0  0
 32 35  1  0  0  0
 34 36  1  0  0  0
M  CHG 1  32   1
M  END
> <minimizedAffinity>
-7.47542

> <CNNscore>
0.1752459705

> <CNNaffinity>
5.7038736343

> <CNN_VS>
0.9995808601

> <CNNaffinity_variance>
0.0247372203

$$$$
