


 24 26  0  0  0  0  0  0  0  0999 V2000
   -4.9389   -3.6029  -19.7109 O   0  0  0  0  0  0  0  0  0  0  0  0
   -5.7019   -3.2813  -20.9617 C   0  0  0  0  0  0  0  0  0  0  0  0
   -6.1445   -4.3857  -21.8752 N   0  0  0  0  0  0  0  0  0  0  0  0
   -5.7730   -5.7740  -21.4453 C   0  0  0  0  0  0  0  0  0  0  0  0
   -6.0654   -7.0752  -22.1319 C   0  0  0  0  0  0  0  0  0  0  0  0
   -6.8014   -7.3096  -23.4177 C   0  0  0  0  0  0  0  0  0  0  0  0
   -7.4268   -6.3006  -24.3347 S   0  0  0  0  0  0  0  0  0  0  0  0
   -7.4706   -4.8080  -24.1921 C   0  0  0  0  0  0  0  0  0  0  0  0
   -6.9000   -3.9558  -23.0976 C   0  0  0  0  0  0  0  0  0  0  0  0
   -7.1130   -2.4783  -23.2450 C   0  0  0  0  0  0  0  0  0  0  0  0
   -7.3261   -1.0009  -23.3923 F   0  0  0  0  0  0  0  0  0  0  0  0
   -5.8863   -2.3870  -24.1032 F   0  0  0  0  0  0  0  0  0  0  0  0
   -8.3398   -2.5696  -22.3867 F   0  0  0  0  0  0  0  0  0  0  0  0
   -6.0222   -1.8552  -21.2990 C   0  0  0  0  0  0  0  0  0  0  0  0
   -5.2031   -0.7437  -20.7129 C   0  0  0  0  0  0  0  0  0  0  0  0
   -5.3442   -0.3929  -19.2614 C   0  0  0  0  0  0  0  0  0  0  0  0
   -4.5251    0.7186  -18.6753 N   0  0  0  0  0  0  0  0  0  0  0  0
   -3.5648    1.4794  -19.5407 C   0  0  0  0  0  0  0  0  0  0  0  0
   -3.4236    1.1286  -20.9924 C   0  0  0  0  0  0  0  0  0  0  0  0
   -2.4634    1.8894  -21.8578 C   0  0  0  0  0  0  0  0  0  0  0  0
   -2.3222    1.5387  -23.3093 C   0  0  0  0  0  0  0  0  0  0  0  0
   -3.1413    0.4271  -23.8954 C   0  0  0  0  0  0  0  0  0  0  0  0
   -4.1016   -0.3337  -23.0300 C   0  0  0  0  0  0  0  0  0  0  0  0
   -4.2428    0.0171  -21.5785 C   0  0  0  0  0  0  0  0  0  0  0  0
  1  2  2  0  0  0
  2 14  1  0  0  0
 14 15  1  0  0  0
 15 16  2  0  0  0
 16 17  1  0  0  0
 17 18  2  0  0  0
 18 19  1  0  0  0
 19 20  2  0  0  0
 20 21  1  0  0  0
 21 22  2  0  0  0
 22 23  1  0  0  0
 23 24  2  0  0  0
  2  3  1  0  0  0
  3  4  1  0  0  0
  4  5  1  0  0  0
  5  6  1  0  0  0
  6  7  1  0  0  0
  7  8  1  0  0  0
  8  9  1  0  0  0
  9 10  1  0  0  0
 10 11  1  0  0  0
 10 12  1  0  0  0
 10 13  1  0  0  0
 24 15  1  0  0  0
  9  3  1  0  0  0
 24 19  1  0  0  0
M  END
> <minimizedAffinity>
-6.56057

> <CNNscore>
0.4520106614

> <CNNaffinity>
4.9504594803

> <CNN_VS>
2.2376604080

> <CNNaffinity_variance>
0.2976633906

$$$$



 24 26  0  0  0  0  0  0  0  0999 V2000
   -7.7736   -3.2296  -21.8768 O   0  0  0  0  0  0  0  0  0  0  0  0
   -8.1233   -1.8137  -22.2279 C   0  0  0  0  0  0  0  0  0  0  0  0
   -9.5342   -1.4580  -22.5924 N   0  0  0  0  0  0  0  0  0  0  0  0
  -10.5164   -2.5916  -22.5751 C   0  0  0  0  0  0  0  0  0  0  0  0
  -11.9833   -2.5628  -22.8871 C   0  0  0  0  0  0  0  0  0  0  0  0
  -12.8303   -1.3934  -23.2936 C   0  0  0  0  0  0  0  0  0  0  0  0
  -12.4196    0.0360  -23.4885 S   0  0  0  0  0  0  0  0  0  0  0  0
  -11.0604    0.6491  -23.3249 C   0  0  0  0  0  0  0  0  0  0  0  0
   -9.7763   -0.0158  -22.9261 C   0  0  0  0  0  0  0  0  0  0  0  0
   -8.5755    0.8800  -22.8511 C   0  0  0  0  0  0  0  0  0  0  0  0
   -7.3748    1.7758  -22.7762 F   0  0  0  0  0  0  0  0  0  0  0  0
   -8.8800    1.1678  -21.4109 F   0  0  0  0  0  0  0  0  0  0  0  0
   -8.2709    0.5923  -24.2914 F   0  0  0  0  0  0  0  0  0  0  0  0
   -7.0622   -0.7537  -22.2143 C   0  0  0  0  0  0  0  0  0  0  0  0
   -6.3496   -0.4221  -20.9367 C   0  0  0  0  0  0  0  0  0  0  0  0
   -6.9380   -0.8361  -19.6205 C   0  0  0  0  0  0  0  0  0  0  0  0
   -6.2254   -0.5045  -18.3429 N   0  0  0  0  0  0  0  0  0  0  0  0
   -4.9245    0.2412  -18.3815 C   0  0  0  0  0  0  0  0  0  0  0  0
   -4.3361    0.6553  -19.6977 C   0  0  0  0  0  0  0  0  0  0  0  0
   -3.0352    1.4010  -19.7362 C   0  0  0  0  0  0  0  0  0  0  0  0
   -2.4468    1.8151  -21.0524 C   0  0  0  0  0  0  0  0  0  0  0  0
   -3.1594    1.4834  -22.3300 C   0  0  0  0  0  0  0  0  0  0  0  0
   -4.4603    0.7377  -22.2915 C   0  0  0  0  0  0  0  0  0  0  0  0
   -5.0487    0.3237  -20.9753 C   0  0  0  0  0  0  0  0  0  0  0  0
  1  2  2  0  0  0
  2 14  1  0  0  0
 14 15  1  0  0  0
 15 16  2  0  0  0
 16 17  1  0  0  0
 17 18  2  0  0  0
 18 19  1  0  0  0
 19 20  2  0  0  0
 20 21  1  0  0  0
 21 22  2  0  0  0
 22 23  1  0  0  0
 23 24  2  0  0  0
  2  3  1  0  0  0
  3  4  1  0  0  0
  4  5  1  0  0  0
  5  6  1  0  0  0
  6  7  1  0  0  0
  7  8  1  0  0  0
  8  9  1  0  0  0
  9 10  1  0  0  0
 10 11  1  0  0  0
 10 12  1  0  0  0
 10 13  1  0  0  0
 24 15  1  0  0  0
  9  3  1  0  0  0
 24 19  1  0  0  0
M  END
> <minimizedAffinity>
-6.35365

> <CNNscore>
0.3754504025

> <CNNaffinity>
5.3791046143

> <CNN_VS>
2.0195870399

> <CNNaffinity_variance>
0.3009396195

$$$$



 24 26  0  0  0  0  0  0  0  0999 V2000
   -5.7392   -3.6491  -21.4738 O   0  0  0  0  0  0  0  0  0  0  0  0
   -6.8878   -2.9174  -22.1025 C   0  0  0  0  0  0  0  0  0  0  0  0
   -7.7194   -3.5893  -23.1546 N   0  0  0  0  0  0  0  0  0  0  0  0
   -7.3177   -4.9916  -23.5043 C   0  0  0  0  0  0  0  0  0  0  0  0
   -7.9402   -5.9210  -24.5037 C   0  0  0  0  0  0  0  0  0  0  0  0
   -9.1180   -5.6778  -25.4002 C   0  0  0  0  0  0  0  0  0  0  0  0
   -9.9642   -4.4449  -25.5188 S   0  0  0  0  0  0  0  0  0  0  0  0
   -9.8416   -3.1509  -24.7700 C   0  0  0  0  0  0  0  0  0  0  0  0
   -8.8426   -2.7702  -23.7179 C   0  0  0  0  0  0  0  0  0  0  0  0
   -8.9858   -1.3873  -23.1546 C   0  0  0  0  0  0  0  0  0  0  0  0
   -9.1289   -0.0045  -22.5914 F   0  0  0  0  0  0  0  0  0  0  0  0
   -9.9321   -1.9090  -22.1143 F   0  0  0  0  0  0  0  0  0  0  0  0
   -8.0394   -0.8656  -24.1950 F   0  0  0  0  0  0  0  0  0  0  0  0
   -7.2049   -1.5138  -21.6791 C   0  0  0  0  0  0  0  0  0  0  0  0
   -6.4643   -0.8906  -20.5332 C   0  0  0  0  0  0  0  0  0  0  0  0
   -6.9796   -1.0472  -19.1332 C   0  0  0  0  0  0  0  0  0  0  0  0
   -6.2390   -0.4241  -17.9873 N   0  0  0  0  0  0  0  0  0  0  0  0
   -4.9830    0.3556  -18.2412 C   0  0  0  0  0  0  0  0  0  0  0  0
   -4.4676    0.5122  -19.6412 C   0  0  0  0  0  0  0  0  0  0  0  0
   -3.2116    1.2919  -19.8952 C   0  0  0  0  0  0  0  0  0  0  0  0
   -2.6963    1.4485  -21.2951 C   0  0  0  0  0  0  0  0  0  0  0  0
   -3.4369    0.8254  -22.4411 C   0  0  0  0  0  0  0  0  0  0  0  0
   -4.6929    0.0457  -22.1871 C   0  0  0  0  0  0  0  0  0  0  0  0
   -5.2082   -0.1109  -20.7872 C   0  0  0  0  0  0  0  0  0  0  0  0
  1  2  2  0  0  0
  2 14  1  0  0  0
 14 15  1  0  0  0
 15 16  2  0  0  0
 16 17  1  0  0  0
 17 18  2  0  0  0
 18 19  1  0  0  0
 19 20  2  0  0  0
 20 21  1  0  0  0
 21 22  2  0  0  0
 22 23  1  0  0  0
 23 24  2  0  0  0
  2  3  1  0  0  0
  3  4  1  0  0  0
  4  5  1  0  0  0
  5  6  1  0  0  0
  6  7  1  0  0  0
  7  8  1  0  0  0
  8  9  1  0  0  0
  9 10  1  0  0  0
 10 11  1  0  0  0
 10 12  1  0  0  0
 10 13  1  0  0  0
 24 15  1  0  0  0
  9  3  1  0  0  0
 24 19  1  0  0  0
M  END
> <minimizedAffinity>
-6.93033

> <CNNscore>
0.3709186614

> <CNNaffinity>
5.2577466965

> <CNN_VS>
1.9501963854

> <CNNaffinity_variance>
0.1993945390

$$$$



 24 26  0  0  0  0  0  0  0  0999 V2000
   -5.0066   -3.8884  -20.8466 O   0  0  0  0  0  0  0  0  0  0  0  0
   -5.8940   -3.3444  -21.9268 C   0  0  0  0  0  0  0  0  0  0  0  0
   -6.4198   -4.2562  -22.9955 N   0  0  0  0  0  0  0  0  0  0  0  0
   -5.9984   -5.6920  -22.8913 C   0  0  0  0  0  0  0  0  0  0  0  0
   -6.3507   -6.8378  -23.7930 C   0  0  0  0  0  0  0  0  0  0  0  0
   -7.2113   -6.8309  -25.0216 C   0  0  0  0  0  0  0  0  0  0  0  0
   -7.9323   -5.6763  -25.6518 S   0  0  0  0  0  0  0  0  0  0  0  0
   -7.9706   -4.2436  -25.2092 C   0  0  0  0  0  0  0  0  0  0  0  0
   -7.2975   -3.6116  -24.0271 C   0  0  0  0  0  0  0  0  0  0  0  0
   -7.5333   -2.1404  -23.8535 C   0  0  0  0  0  0  0  0  0  0  0  0
   -7.7692   -0.6694  -23.6800 F   0  0  0  0  0  0  0  0  0  0  0  0
   -7.5660   -1.9699  -25.3434 F   0  0  0  0  0  0  0  0  0  0  0  0
   -7.5007   -2.3109  -22.3636 F   0  0  0  0  0  0  0  0  0  0  0  0
   -6.2554   -1.8887  -21.9383 C   0  0  0  0  0  0  0  0  0  0  0  0
   -6.1728   -1.0854  -20.6742 C   0  0  0  0  0  0  0  0  0  0  0  0
   -7.2353   -1.2269  -19.6249 C   0  0  0  0  0  0  0  0  0  0  0  0
   -7.1528   -0.4237  -18.3608 N   0  0  0  0  0  0  0  0  0  0  0  0
   -6.0077    0.5211  -18.1460 C   0  0  0  0  0  0  0  0  0  0  0  0
   -4.9451    0.6627  -19.1953 C   0  0  0  0  0  0  0  0  0  0  0  0
   -3.8001    1.6075  -18.9805 C   0  0  0  0  0  0  0  0  0  0  0  0
   -2.7376    1.7490  -20.0298 C   0  0  0  0  0  0  0  0  0  0  0  0
   -2.8201    0.9457  -21.2939 C   0  0  0  0  0  0  0  0  0  0  0  0
   -3.9652    0.0009  -21.5087 C   0  0  0  0  0  0  0  0  0  0  0  0
   -5.0277   -0.1406  -20.4594 C   0  0  0  0  0  0  0  0  0  0  0  0
  1  2  2  0  0  0
  2 14  1  0  0  0
 14 15  1  0  0  0
 15 16  2  0  0  0
 16 17  1  0  0  0
 17 18  2  0  0  0
 18 19  1  0  0  0
 19 20  2  0  0  0
 20 21  1  0  0  0
 21 22  2  0  0  0
 22 23  1  0  0  0
 23 24  2  0  0  0
  2  3  1  0  0  0
  3  4  1  0  0  0
  4  5  1  0  0  0
  5  6  1  0  0  0
  6  7  1  0  0  0
  7  8  1  0  0  0
  8  9  1  0  0  0
  9 10  1  0  0  0
 10 11  1  0  0  0
 10 12  1  0  0  0
 10 13  1  0  0  0
 24 15  1  0  0  0
  9  3  1  0  0  0
 24 19  1  0  0  0
M  END
> <minimizedAffinity>
-5.53274

> <CNNscore>
0.3588879406

> <CNNaffinity>
5.1859254837

> <CNN_VS>
1.8611661196

> <CNNaffinity_variance>
0.1263529807

$$$$



 24 26  0  0  0  0  0  0  0  0999 V2000
  -13.1791    0.3203  -23.6134 O   0  0  0  0  0  0  0  0  0  0  0  0
  -11.6903    0.4792  -23.5220 C   0  0  0  0  0  0  0  0  0  0  0  0
  -10.7978   -0.7171  -23.6721 N   0  0  0  0  0  0  0  0  0  0  0  0
  -11.4953   -2.0236  -23.9103 C   0  0  0  0  0  0  0  0  0  0  0  0
  -10.8930   -3.3843  -24.0993 C   0  0  0  0  0  0  0  0  0  0  0  0
   -9.4447   -3.7747  -24.0968 C   0  0  0  0  0  0  0  0  0  0  0  0
   -8.2408   -2.9006  -23.9046 S   0  0  0  0  0  0  0  0  0  0  0  0
   -8.1881   -1.4204  -23.6675 C   0  0  0  0  0  0  0  0  0  0  0  0
   -9.3261   -0.4487  -23.5640 C   0  0  0  0  0  0  0  0  0  0  0  0
   -8.9413    0.9805  -23.3203 C   0  0  0  0  0  0  0  0  0  0  0  0
   -8.5565    2.4096  -23.0766 F   0  0  0  0  0  0  0  0  0  0  0  0
   -9.0012    0.7443  -21.8403 F   0  0  0  0  0  0  0  0  0  0  0  0
   -8.8813    1.2168  -24.8004 F   0  0  0  0  0  0  0  0  0  0  0  0
  -11.0940    1.8342  -23.2807 C   0  0  0  0  0  0  0  0  0  0  0  0
  -11.9614    3.0566  -23.3391 C   0  0  0  0  0  0  0  0  0  0  0  0
  -13.0656    3.2412  -22.3408 C   0  0  0  0  0  0  0  0  0  0  0  0
  -13.9330    4.4635  -22.3993 N   0  0  0  0  0  0  0  0  0  0  0  0
  -13.6963    5.5013  -23.4561 C   0  0  0  0  0  0  0  0  0  0  0  0
  -12.5921    5.3167  -24.4545 C   0  0  0  0  0  0  0  0  0  0  0  0
  -12.3554    6.3545  -25.5114 C   0  0  0  0  0  0  0  0  0  0  0  0
  -11.2512    6.1699  -26.5097 C   0  0  0  0  0  0  0  0  0  0  0  0
  -10.3838    4.9475  -26.4513 C   0  0  0  0  0  0  0  0  0  0  0  0
  -10.6205    3.9098  -25.3944 C   0  0  0  0  0  0  0  0  0  0  0  0
  -11.7247    4.0944  -24.3961 C   0  0  0  0  0  0  0  0  0  0  0  0
  1  2  2  0  0  0
  2 14  1  0  0  0
 14 15  1  0  0  0
 15 16  2  0  0  0
 16 17  1  0  0  0
 17 18  2  0  0  0
 18 19  1  0  0  0
 19 20  2  0  0  0
 20 21  1  0  0  0
 21 22  2  0  0  0
 22 23  1  0  0  0
 23 24  2  0  0  0
  2  3  1  0  0  0
  3  4  1  0  0  0
  4  5  1  0  0  0
  5  6  1  0  0  0
  6  7  1  0  0  0
  7  8  1  0  0  0
  8  9  1  0  0  0
  9 10  1  0  0  0
 10 11  1  0  0  0
 10 12  1  0  0  0
 10 13  1  0  0  0
 24 15  1  0  0  0
  9  3  1  0  0  0
 24 19  1  0  0  0
M  END
> <minimizedAffinity>
-6.35197

> <CNNscore>
0.3461846709

> <CNNaffinity>
5.2788205147

> <CNN_VS>
1.8274466991

> <CNNaffinity_variance>
0.0194288865

$$$$



 24 26  0  0  0  0  0  0  0  0999 V2000
   -8.3366    0.6404  -21.4672 O   0  0  0  0  0  0  0  0  0  0  0  0
   -7.8363    1.3002  -22.7180 C   0  0  0  0  0  0  0  0  0  0  0  0
   -6.4860    1.9533  -22.7328 N   0  0  0  0  0  0  0  0  0  0  0  0
   -5.7182    1.8898  -21.4457 C   0  0  0  0  0  0  0  0  0  0  0  0
   -4.3568    2.4409  -21.1409 C   0  0  0  0  0  0  0  0  0  0  0  0
   -3.4270    3.1914  -22.0476 C   0  0  0  0  0  0  0  0  0  0  0  0
   -3.6289    3.5763  -23.4832 S   0  0  0  0  0  0  0  0  0  0  0  0
   -4.8105    3.3056  -24.3667 C   0  0  0  0  0  0  0  0  0  0  0  0
   -6.0821    2.5833  -24.0327 C   0  0  0  0  0  0  0  0  0  0  0  0
   -7.0818    2.4771  -25.1459 C   0  0  0  0  0  0  0  0  0  0  0  0
   -8.0815    2.3708  -26.2591 F   0  0  0  0  0  0  0  0  0  0  0  0
   -7.6894    3.7823  -24.7249 F   0  0  0  0  0  0  0  0  0  0  0  0
   -6.4743    1.1718  -25.5670 F   0  0  0  0  0  0  0  0  0  0  0  0
   -8.6863    1.3070  -23.9538 C   0  0  0  0  0  0  0  0  0  0  0  0
  -10.1773    1.4236  -23.8380 C   0  0  0  0  0  0  0  0  0  0  0  0
  -10.8482    2.7417  -24.0880 C   0  0  0  0  0  0  0  0  0  0  0  0
  -12.3391    2.8583  -23.9721 N   0  0  0  0  0  0  0  0  0  0  0  0
  -13.1592    1.6568  -23.6063 C   0  0  0  0  0  0  0  0  0  0  0  0
  -12.4883    0.3386  -23.3563 C   0  0  0  0  0  0  0  0  0  0  0  0
  -13.3084   -0.8629  -22.9905 C   0  0  0  0  0  0  0  0  0  0  0  0
  -12.6375   -2.1809  -22.7405 C   0  0  0  0  0  0  0  0  0  0  0  0
  -11.1466   -2.2975  -22.8563 C   0  0  0  0  0  0  0  0  0  0  0  0
  -10.3265   -1.0961  -23.2222 C   0  0  0  0  0  0  0  0  0  0  0  0
  -10.9974    0.2220  -23.4721 C   0  0  0  0  0  0  0  0  0  0  0  0
  1  2  2  0  0  0
  2 14  1  0  0  0
 14 15  1  0  0  0
 15 16  2  0  0  0
 16 17  1  0  0  0
 17 18  2  0  0  0
 18 19  1  0  0  0
 19 20  2  0  0  0
 20 21  1  0  0  0
 21 22  2  0  0  0
 22 23  1  0  0  0
 23 24  2  0  0  0
  2  3  1  0  0  0
  3  4  1  0  0  0
  4  5  1  0  0  0
  5  6  1  0  0  0
  6  7  1  0  0  0
  7  8  1  0  0  0
  8  9  1  0  0  0
  9 10  1  0  0  0
 10 11  1  0  0  0
 10 12  1  0  0  0
 10 13  1  0  0  0
 24 15  1  0  0  0
  9  3  1  0  0  0
 24 19  1  0  0  0
M  END
> <minimizedAffinity>
-5.36096

> <CNNscore>
0.3171236813

> <CNNaffinity>
4.8900957108

> <CNN_VS>
1.5507651567

> <CNNaffinity_variance>
0.0537472069

$$$$



 24 26  0  0  0  0  0  0  0  0999 V2000
   -8.1190    0.0559  -20.8464 O   0  0  0  0  0  0  0  0  0  0  0  0
   -7.4118    0.3221  -22.1422 C   0  0  0  0  0  0  0  0  0  0  0  0
   -5.9465    0.6432  -22.1447 N   0  0  0  0  0  0  0  0  0  0  0  0
   -5.2844    0.6726  -20.7991 C   0  0  0  0  0  0  0  0  0  0  0  0
   -3.8494    0.9586  -20.4690 C   0  0  0  0  0  0  0  0  0  0  0  0
   -2.7221    1.2857  -21.4029 C   0  0  0  0  0  0  0  0  0  0  0  0
   -2.7514    1.4077  -22.8977 S   0  0  0  0  0  0  0  0  0  0  0  0
   -3.9153    1.2327  -23.8276 C   0  0  0  0  0  0  0  0  0  0  0  0
   -5.3373    0.8925  -23.4925 C   0  0  0  0  0  0  0  0  0  0  0  0
   -6.2737    0.7876  -24.6596 C   0  0  0  0  0  0  0  0  0  0  0  0
   -7.2101    0.6829  -25.8266 F   0  0  0  0  0  0  0  0  0  0  0  0
   -5.9739   -0.6780  -24.7686 F   0  0  0  0  0  0  0  0  0  0  0  0
   -6.5736    2.2533  -24.5506 F   0  0  0  0  0  0  0  0  0  0  0  0
   -8.1698    0.2672  -23.4354 C   0  0  0  0  0  0  0  0  0  0  0  0
   -9.5837    0.7641  -23.4976 C   0  0  0  0  0  0  0  0  0  0  0  0
   -9.8588    2.2075  -23.7991 C   0  0  0  0  0  0  0  0  0  0  0  0
  -11.2728    2.7044  -23.8614 N   0  0  0  0  0  0  0  0  0  0  0  0
  -12.4116    1.7580  -23.6221 C   0  0  0  0  0  0  0  0  0  0  0  0
  -12.1365    0.3145  -23.3206 C   0  0  0  0  0  0  0  0  0  0  0  0
  -13.2753   -0.6320  -23.0813 C   0  0  0  0  0  0  0  0  0  0  0  0
  -13.0002   -2.0753  -22.7798 C   0  0  0  0  0  0  0  0  0  0  0  0
  -11.5862   -2.5722  -22.7176 C   0  0  0  0  0  0  0  0  0  0  0  0
  -10.4474   -1.6258  -22.9568 C   0  0  0  0  0  0  0  0  0  0  0  0
  -10.7226   -0.1824  -23.2583 C   0  0  0  0  0  0  0  0  0  0  0  0
  1  2  2  0  0  0
  2 14  1  0  0  0
 14 15  1  0  0  0
 15 16  2  0  0  0
 16 17  1  0  0  0
 17 18  2  0  0  0
 18 19  1  0  0  0
 19 20  2  0  0  0
 20 21  1  0  0  0
 21 22  2  0  0  0
 22 23  1  0  0  0
 23 24  2  0  0  0
  2  3  1  0  0  0
  3  4  1  0  0  0
  4  5  1  0  0  0
  5  6  1  0  0  0
  6  7  1  0  0  0
  7  8  1  0  0  0
  8  9  1  0  0  0
  9 10  1  0  0  0
 10 11  1  0  0  0
 10 12  1  0  0  0
 10 13  1  0  0  0
 24 15  1  0  0  0
  9  3  1  0  0  0
 24 19  1  0  0  0
M  END
> <minimizedAffinity>
-5.40901

> <CNNscore>
0.2838687897

> <CNNaffinity>
5.0568413734

> <CNN_VS>
1.4354794025

> <CNNaffinity_variance>
0.0348848216

$$$$



 24 26  0  0  0  0  0  0  0  0999 V2000
   -8.8213   -1.0575  -21.6331 O   0  0  0  0  0  0  0  0  0  0  0  0
   -8.0524   -2.2599  -22.0950 C   0  0  0  0  0  0  0  0  0  0  0  0
   -8.6093   -3.1357  -23.1779 N   0  0  0  0  0  0  0  0  0  0  0  0
   -9.9405   -2.7204  -23.7307 C   0  0  0  0  0  0  0  0  0  0  0  0
  -10.7525   -3.3779  -24.8070 C   0  0  0  0  0  0  0  0  0  0  0  0
  -10.4339   -4.6130  -25.5964 C   0  0  0  0  0  0  0  0  0  0  0  0
   -9.2246   -5.4957  -25.5044 S   0  0  0  0  0  0  0  0  0  0  0  0
   -8.0352   -5.3612  -24.6003 C   0  0  0  0  0  0  0  0  0  0  0  0
   -7.7614   -4.3109  -23.5649 C   0  0  0  0  0  0  0  0  0  0  0  0
   -6.4687   -4.4550  -22.8178 C   0  0  0  0  0  0  0  0  0  0  0  0
   -5.1761   -4.5992  -22.0707 F   0  0  0  0  0  0  0  0  0  0  0  0
   -5.8173   -3.4842  -23.7575 F   0  0  0  0  0  0  0  0  0  0  0  0
   -7.1201   -5.4260  -21.8781 F   0  0  0  0  0  0  0  0  0  0  0  0
   -6.7267   -2.5864  -21.4738 C   0  0  0  0  0  0  0  0  0  0  0  0
   -6.1061   -1.6398  -20.4895 C   0  0  0  0  0  0  0  0  0  0  0  0
   -6.5256   -1.6733  -19.0498 C   0  0  0  0  0  0  0  0  0  0  0  0
   -5.9050   -0.7267  -18.0655 N   0  0  0  0  0  0  0  0  0  0  0  0
   -4.8650    0.2535  -18.5210 C   0  0  0  0  0  0  0  0  0  0  0  0
   -4.4455    0.2871  -19.9608 C   0  0  0  0  0  0  0  0  0  0  0  0
   -3.4055    1.2673  -20.4163 C   0  0  0  0  0  0  0  0  0  0  0  0
   -2.9860    1.3009  -21.8560 C   0  0  0  0  0  0  0  0  0  0  0  0
   -3.6066    0.3542  -22.8403 C   0  0  0  0  0  0  0  0  0  0  0  0
   -4.6466   -0.6260  -22.3848 C   0  0  0  0  0  0  0  0  0  0  0  0
   -5.0661   -0.6595  -20.9451 C   0  0  0  0  0  0  0  0  0  0  0  0
  1  2  2  0  0  0
  2 14  1  0  0  0
 14 15  1  0  0  0
 15 16  2  0  0  0
 16 17  1  0  0  0
 17 18  2  0  0  0
 18 19  1  0  0  0
 19 20  2  0  0  0
 20 21  1  0  0  0
 21 22  2  0  0  0
 22 23  1  0  0  0
 23 24  2  0  0  0
  2  3  1  0  0  0
  3  4  1  0  0  0
  4  5  1  0  0  0
  5  6  1  0  0  0
  6  7  1  0  0  0
  7  8  1  0  0  0
  8  9  1  0  0  0
  9 10  1  0  0  0
 10 11  1  0  0  0
 10 12  1  0  0  0
 10 13  1  0  0  0
 24 15  1  0  0  0
  9  3  1  0  0  0
 24 19  1  0  0  0
M  END
> <minimizedAffinity>
-6.45406

> <CNNscore>
0.2808762193

> <CNNaffinity>
5.2098836899

> <CNN_VS>
1.4633324146

> <CNNaffinity_variance>
0.2769580781

$$$$



 24 26  0  0  0  0  0  0  0  0999 V2000
   -8.8961    0.5939  -21.6851 O   0  0  0  0  0  0  0  0  0  0  0  0
   -9.1733   -0.6240  -22.5158 C   0  0  0  0  0  0  0  0  0  0  0  0
   -8.2670   -1.8158  -22.4251 N   0  0  0  0  0  0  0  0  0  0  0  0
   -7.1139   -1.6857  -21.4745 C   0  0  0  0  0  0  0  0  0  0  0  0
   -6.0427   -2.6878  -21.1612 C   0  0  0  0  0  0  0  0  0  0  0  0
   -5.8599   -4.0674  -21.7209 C   0  0  0  0  0  0  0  0  0  0  0  0
   -6.7032   -4.7857  -22.7324 S   0  0  0  0  0  0  0  0  0  0  0  0
   -7.9376   -4.3017  -23.4338 C   0  0  0  0  0  0  0  0  0  0  0  0
   -8.6335   -2.9799  -23.2971 C   0  0  0  0  0  0  0  0  0  0  0  0
   -9.8580   -2.7984  -24.1444 C   0  0  0  0  0  0  0  0  0  0  0  0
  -11.0823   -2.6169  -24.9917 F   0  0  0  0  0  0  0  0  0  0  0  0
  -10.7032   -3.3718  -23.0459 F   0  0  0  0  0  0  0  0  0  0  0  0
   -9.0128   -2.2250  -25.2429 F   0  0  0  0  0  0  0  0  0  0  0  0
  -10.3568   -0.6501  -23.4370 C   0  0  0  0  0  0  0  0  0  0  0  0
  -11.2077    0.5745  -23.5998 C   0  0  0  0  0  0  0  0  0  0  0  0
  -12.6073    0.5923  -23.0606 C   0  0  0  0  0  0  0  0  0  0  0  0
  -13.4582    1.8169  -23.2234 N   0  0  0  0  0  0  0  0  0  0  0  0
  -12.9094    3.0236  -23.9254 C   0  0  0  0  0  0  0  0  0  0  0  0
  -11.5097    3.0057  -24.4646 C   0  0  0  0  0  0  0  0  0  0  0  0
  -10.9610    4.2124  -25.1665 C   0  0  0  0  0  0  0  0  0  0  0  0
   -9.5614    4.1945  -25.7057 C   0  0  0  0  0  0  0  0  0  0  0  0
   -8.7105    2.9700  -25.5429 C   0  0  0  0  0  0  0  0  0  0  0  0
   -9.2593    1.7633  -24.8409 C   0  0  0  0  0  0  0  0  0  0  0  0
  -10.6589    1.7812  -24.3018 C   0  0  0  0  0  0  0  0  0  0  0  0
  1  2  2  0  0  0
  2 14  1  0  0  0
 14 15  1  0  0  0
 15 16  2  0  0  0
 16 17  1  0  0  0
 17 18  2  0  0  0
 18 19  1  0  0  0
 19 20  2  0  0  0
 20 21  1  0  0  0
 21 22  2  0  0  0
 22 23  1  0  0  0
 23 24  2  0  0  0
  2  3  1  0  0  0
  3  4  1  0  0  0
  4  5  1  0  0  0
  5  6  1  0  0  0
  6  7  1  0  0  0
  7  8  1  0  0  0
  8  9  1  0  0  0
  9 10  1  0  0  0
 10 11  1  0  0  0
 10 12  1  0  0  0
 10 13  1  0  0  0
 24 15  1  0  0  0
  9  3  1  0  0  0
 24 19  1  0  0  0
M  END
> <minimizedAffinity>
-5.93800

> <CNNscore>
0.2477556318

> <CNNaffinity>
5.2218832970

> <CNN_VS>
1.2937510014

> <CNNaffinity_variance>
0.2224131078

$$$$
