


 42 46  0  0  0  0  0  0  0  0999 V2000
    7.5685   -2.6270   23.3436 N   0  0  0  0  0  0  0  0  0  0  0  0
    8.1749   -3.6092   24.3015 C   0  0  0  0  0  0  0  0  0  0  0  0
    9.5352   -3.3517   24.8789 C   0  0  0  0  0  0  0  0  0  0  0  0
   10.1416   -4.3340   25.8367 C   0  0  0  0  0  0  0  0  0  0  0  0
   11.5019   -4.0765   26.4140 C   0  0  0  0  0  0  0  0  0  0  0  0
   12.2557   -2.8367   26.0336 C   0  0  0  0  0  0  0  0  0  0  0  0
   13.6160   -2.5792   26.6110 Cl  0  0  0  0  0  0  0  0  0  0  0  0
   11.6493   -1.8545   25.0758 C   0  0  0  0  0  0  0  0  0  0  0  0
   10.2891   -2.1120   24.4984 C   0  0  0  0  0  0  0  0  0  0  0  0
    9.6826   -1.1297   23.5405 C   0  0  0  0  0  0  0  0  0  0  0  0
    8.3224   -1.3872   22.9632 C   0  0  0  0  0  0  0  0  0  0  0  0
    7.0559   -3.4700   23.6024 H   0  0  0  0  0  0  0  0  0  0  0  0
   10.4365    0.1100   23.1601 C   0  0  0  0  0  0  0  0  0  0  0  0
   11.7827   -0.0013   22.5078 O   0  0  0  0  0  0  0  0  0  0  0  0
    9.8442    1.4610   23.4318 N   0  0  0  0  0  0  0  0  0  0  0  0
    8.9607    1.5341   23.8599 H   0  0  0  0  0  0  0  0  0  0  0  0
   10.5981    2.7008   23.0514 C   0  0  0  0  0  0  0  0  0  0  0  0
   12.0508    2.6134   22.6882 C   0  0  0  0  0  0  0  0  0  0  0  0
   12.8047    3.8531   22.3077 N   0  0  0  0  0  0  0  0  0  0  0  0
   12.1058    5.1802   22.2904 C   0  0  0  0  0  0  0  0  0  0  0  0
   10.6530    5.2676   22.6536 C   0  0  0  0  0  0  0  0  0  0  0  0
    9.9541    6.5947   22.6362 C   0  0  0  0  0  0  0  0  0  0  0  0
    8.5014    6.6821   22.9994 C   0  0  0  0  0  0  0  0  0  0  0  0
    7.7476    5.4424   23.3799 C   0  0  0  0  0  0  0  0  0  0  0  0
    8.4464    4.1153   23.3972 C   0  0  0  0  0  0  0  0  0  0  0  0
    9.8991    4.0279   23.0340 C   0  0  0  0  0  0  0  0  0  0  0  0
    6.2082   -2.8844   22.7662 C   0  0  0  0  0  0  0  0  0  0  0  0
    5.3153   -4.9213   21.4232 O   0  0  0  0  0  0  0  0  0  0  0  0
    5.6586   -4.2797   22.7349 C   0  0  0  0  0  0  0  0  0  0  0  0
    5.4522   -5.0334   24.0152 N   0  0  0  0  0  0  0  0  0  0  0  0
    5.6775   -4.6123   24.8761 H   0  0  0  0  0  0  0  0  0  0  0  0
    4.9025   -6.4288   23.9839 C   0  0  0  0  0  0  0  0  0  0  0  0
    5.0847   -7.3333   25.1665 C   0  0  0  0  0  0  0  0  0  0  0  0
    4.4356   -6.9958   26.4759 C   0  0  0  0  0  0  0  0  0  0  0  0
    4.0631   -8.0896   27.4324 C   0  0  0  0  0  0  0  0  0  0  0  0
    3.4139   -7.7520   28.7419 C   0  0  0  0  0  0  0  0  0  0  0  0
    3.1372   -6.3207   29.0948 C   0  0  0  0  0  0  0  0  0  0  0  0
    3.5097   -5.2269   28.1384 C   0  0  0  0  0  0  0  0  0  0  0  0
    4.1589   -5.5644   26.8290 C   0  0  0  0  0  0  0  0  0  0  0  0
    2.4880   -5.9831   30.4043 C   0  0  0  0  0  0  0  0  0  0  0  0
    1.4255   -4.9260   30.4642 F   0  0  0  0  0  0  0  0  0  0  0  0
    2.9014   -6.7026   31.6539 F   0  0  0  0  0  0  0  0  0  0  0  0
 28 29  2  0  0  0
 29 27  1  0  0  0
  1 27  1  0  0  0
  1  2  1  0  0  0
  2  3  1  0  0  0
  3  4  2  0  0  0
  4  5  1  0  0  0
  5  6  2  0  0  0
  6  7  1  0  0  0
  6  8  1  0  0  0
  8  9  2  0  0  0
  9 10  1  0  0  0
 10 13  1  0  0  0
 13 14  2  0  0  0
 13 15  1  0  0  0
 15 17  1  0  0  0
 17 18  2  0  0  0
 18 19  1  0  0  0
 19 20  2  0  0  0
 20 21  1  0  0  0
 21 22  2  0  0  0
 22 23  1  0  0  0
 23 24  2  0  0  0
 24 25  1  0  0  0
 25 26  2  0  0  0
 10 11  1  0  0  0
 29 30  1  0  0  0
 30 32  1  0  0  0
 32 33  1  0  0  0
 33 34  1  0  0  0
 34 35  2  0  0  0
 35 36  1  0  0  0
 36 37  2  0  0  0
 37 40  1  0  0  0
 40 41  1  0  0  0
 40 42  1  0  0  0
 37 38  1  0  0  0
 38 39  2  0  0  0
 11  1  1  0  0  0
 39 34  1  0  0  0
  9  3  1  0  0  0
 26 17  1  0  0  0
 26 21  1  0  0  0
  1 12  1  0  0  0
 15 16  1  0  0  0
 30 31  1  0  0  0
M  CHG 1   1   1
M  END
> <minimizedAffinity>
-7.72976

> <CNNscore>
0.4368311763

> <CNNaffinity>
6.4883546829

> <CNN_VS>
2.8343155384

> <CNNaffinity_variance>
0.2230288088

$$$$



 42 46  0  0  0  0  0  0  0  0999 V2000
    8.7887   -0.3787   22.0608 N   0  0  0  0  0  0  0  0  0  0  0  0
   10.1673    0.0345   22.4833 C   0  0  0  0  0  0  0  0  0  0  0  0
   10.9293   -0.7967   23.4727 C   0  0  0  0  0  0  0  0  0  0  0  0
   12.3079   -0.3835   23.8952 C   0  0  0  0  0  0  0  0  0  0  0  0
   13.0697   -1.2146   24.8846 C   0  0  0  0  0  0  0  0  0  0  0  0
   12.4529   -2.4589   25.4513 C   0  0  0  0  0  0  0  0  0  0  0  0
   13.2148   -3.2901   26.4407 Cl  0  0  0  0  0  0  0  0  0  0  0  0
   11.0743   -2.8721   25.0288 C   0  0  0  0  0  0  0  0  0  0  0  0
   10.3124   -2.0410   24.0395 C   0  0  0  0  0  0  0  0  0  0  0  0
    8.9337   -2.4541   23.6169 C   0  0  0  0  0  0  0  0  0  0  0  0
    8.1719   -1.6230   22.6276 C   0  0  0  0  0  0  0  0  0  0  0  0
    9.2081    0.4674   21.6754 H   0  0  0  0  0  0  0  0  0  0  0  0
    8.3169   -3.6984   24.1837 C   0  0  0  0  0  0  0  0  0  0  0  0
    9.1316   -4.6109   25.0520 O   0  0  0  0  0  0  0  0  0  0  0  0
    6.8855   -4.0303   23.8822 N   0  0  0  0  0  0  0  0  0  0  0  0
    6.3509   -3.4315   23.3123 H   0  0  0  0  0  0  0  0  0  0  0  0
    6.2687   -5.2746   24.4490 C   0  0  0  0  0  0  0  0  0  0  0  0
    6.7469   -6.6222   23.9958 C   0  0  0  0  0  0  0  0  0  0  0  0
    6.1300   -7.8665   24.5626 N   0  0  0  0  0  0  0  0  0  0  0  0
    5.0351   -7.7632   25.5826 C   0  0  0  0  0  0  0  0  0  0  0  0
    4.5569   -6.4156   26.0358 C   0  0  0  0  0  0  0  0  0  0  0  0
    3.4619   -6.3124   27.0557 C   0  0  0  0  0  0  0  0  0  0  0  0
    2.9837   -4.9648   27.5089 C   0  0  0  0  0  0  0  0  0  0  0  0
    3.6005   -3.7205   26.9421 C   0  0  0  0  0  0  0  0  0  0  0  0
    4.6955   -3.8238   25.9221 C   0  0  0  0  0  0  0  0  0  0  0  0
    5.1737   -5.1713   25.4690 C   0  0  0  0  0  0  0  0  0  0  0  0
    8.0268    0.4524   21.0714 C   0  0  0  0  0  0  0  0  0  0  0  0
    6.0480   -1.2256   20.9355 O   0  0  0  0  0  0  0  0  0  0  0  0
    6.5747    0.1740   20.8187 C   0  0  0  0  0  0  0  0  0  0  0  0
    5.6494    1.2952   20.4490 N   0  0  0  0  0  0  0  0  0  0  0  0
    5.9951    2.2138   20.3723 H   0  0  0  0  0  0  0  0  0  0  0  0
    4.1973    1.0168   20.1962 C   0  0  0  0  0  0  0  0  0  0  0  0
    3.1574    1.5417   21.1412 C   0  0  0  0  0  0  0  0  0  0  0  0
    2.0670    2.4381   20.6338 C   0  0  0  0  0  0  0  0  0  0  0  0
    0.6365    1.9919   20.7024 C   0  0  0  0  0  0  0  0  0  0  0  0
   -0.4539    2.8883   20.1949 C   0  0  0  0  0  0  0  0  0  0  0  0
   -0.1139    4.2309   19.6189 C   0  0  0  0  0  0  0  0  0  0  0  0
    1.3166    4.6771   19.5503 C   0  0  0  0  0  0  0  0  0  0  0  0
    2.4070    3.7807   20.0577 C   0  0  0  0  0  0  0  0  0  0  0  0
   -1.2043    5.1273   19.1115 C   0  0  0  0  0  0  0  0  0  0  0  0
   -1.6847    4.9969   17.6965 F   0  0  0  0  0  0  0  0  0  0  0  0
   -1.8143    6.1541   20.0190 F   0  0  0  0  0  0  0  0  0  0  0  0
 28 29  2  0  0  0
 29 27  1  0  0  0
  1 27  1  0  0  0
  1  2  1  0  0  0
  2  3  1  0  0  0
  3  4  2  0  0  0
  4  5  1  0  0  0
  5  6  2  0  0  0
  6  7  1  0  0  0
  6  8  1  0  0  0
  8  9  2  0  0  0
  9 10  1  0  0  0
 10 13  1  0  0  0
 13 14  2  0  0  0
 13 15  1  0  0  0
 15 17  1  0  0  0
 17 18  2  0  0  0
 18 19  1  0  0  0
 19 20  2  0  0  0
 20 21  1  0  0  0
 21 22  2  0  0  0
 22 23  1  0  0  0
 23 24  2  0  0  0
 24 25  1  0  0  0
 25 26  2  0  0  0
 10 11  1  0  0  0
 29 30  1  0  0  0
 30 32  1  0  0  0
 32 33  1  0  0  0
 33 34  1  0  0  0
 34 35  2  0  0  0
 35 36  1  0  0  0
 36 37  2  0  0  0
 37 40  1  0  0  0
 40 41  1  0  0  0
 40 42  1  0  0  0
 37 38  1  0  0  0
 38 39  2  0  0  0
 11  1  1  0  0  0
 39 34  1  0  0  0
  9  3  1  0  0  0
 26 17  1  0  0  0
 26 21  1  0  0  0
  1 12  1  0  0  0
 15 16  1  0  0  0
 30 31  1  0  0  0
M  CHG 1   1   1
M  END
> <minimizedAffinity>
-8.64744

> <CNNscore>
0.3698143959

> <CNNaffinity>
6.2061400414

> <CNN_VS>
2.2951200008

> <CNNaffinity_variance>
0.1281680763

$$$$



 42 46  0  0  0  0  0  0  0  0999 V2000
    7.7955   -4.0910   24.1401 N   0  0  0  0  0  0  0  0  0  0  0  0
    9.0408   -3.6923   24.8751 C   0  0  0  0  0  0  0  0  0  0  0  0
    9.7473   -2.4182   24.5177 C   0  0  0  0  0  0  0  0  0  0  0  0
   10.9925   -2.0195   25.2528 C   0  0  0  0  0  0  0  0  0  0  0  0
   11.6989   -0.7455   24.8954 C   0  0  0  0  0  0  0  0  0  0  0  0
   11.1601    0.1299   23.8030 C   0  0  0  0  0  0  0  0  0  0  0  0
   11.8665    1.4040   23.4456 Cl  0  0  0  0  0  0  0  0  0  0  0  0
    9.9148   -0.2688   23.0679 C   0  0  0  0  0  0  0  0  0  0  0  0
    9.2084   -1.5428   23.4253 C   0  0  0  0  0  0  0  0  0  0  0  0
    7.9631   -1.9416   22.6903 C   0  0  0  0  0  0  0  0  0  0  0  0
    7.2567   -3.2156   23.0477 C   0  0  0  0  0  0  0  0  0  0  0  0
    8.1620   -4.6862   24.8829 H   0  0  0  0  0  0  0  0  0  0  0  0
    7.4242   -1.0662   21.5979 C   0  0  0  0  0  0  0  0  0  0  0  0
    8.2446    0.0779   21.0801 O   0  0  0  0  0  0  0  0  0  0  0  0
    6.0650   -1.3349   21.0232 N   0  0  0  0  0  0  0  0  0  0  0  0
    5.5265   -2.0858   21.3630 H   0  0  0  0  0  0  0  0  0  0  0  0
    5.5261   -0.4596   19.9308 C   0  0  0  0  0  0  0  0  0  0  0  0
    5.9006   -0.7257   18.5030 C   0  0  0  0  0  0  0  0  0  0  0  0
    5.3617    0.1496   17.4105 N   0  0  0  0  0  0  0  0  0  0  0  0
    4.4483    1.2912   17.7460 C   0  0  0  0  0  0  0  0  0  0  0  0
    4.0738    1.5574   19.1739 C   0  0  0  0  0  0  0  0  0  0  0  0
    3.1604    2.6989   19.5094 C   0  0  0  0  0  0  0  0  0  0  0  0
    2.7859    2.9651   20.9373 C   0  0  0  0  0  0  0  0  0  0  0  0
    3.3248    2.0898   22.0297 C   0  0  0  0  0  0  0  0  0  0  0  0
    4.2382    0.9482   21.6942 C   0  0  0  0  0  0  0  0  0  0  0  0
    4.6127    0.6820   20.2663 C   0  0  0  0  0  0  0  0  0  0  0  0
    7.0891   -5.3651   24.4975 C   0  0  0  0  0  0  0  0  0  0  0  0
    5.4247   -4.1200   26.0562 O   0  0  0  0  0  0  0  0  0  0  0  0
    5.7778   -5.3171   25.2242 C   0  0  0  0  0  0  0  0  0  0  0  0
    4.8195   -6.4663   25.1189 N   0  0  0  0  0  0  0  0  0  0  0  0
    5.0513   -7.2520   24.5728 H   0  0  0  0  0  0  0  0  0  0  0  0
    3.5081   -6.4184   25.8456 C   0  0  0  0  0  0  0  0  0  0  0  0
    2.4615   -7.4579   25.5736 C   0  0  0  0  0  0  0  0  0  0  0  0
    1.7490   -7.4773   24.2538 C   0  0  0  0  0  0  0  0  0  0  0  0
    0.9736   -6.2753   23.8023 C   0  0  0  0  0  0  0  0  0  0  0  0
    0.2611   -6.2948   22.4824 C   0  0  0  0  0  0  0  0  0  0  0  0
    0.3240   -7.5162   21.6141 C   0  0  0  0  0  0  0  0  0  0  0  0
    1.0995   -8.7182   22.0655 C   0  0  0  0  0  0  0  0  0  0  0  0
    1.8120   -8.6988   23.3853 C   0  0  0  0  0  0  0  0  0  0  0  0
   -0.3885   -7.5357   20.2942 C   0  0  0  0  0  0  0  0  0  0  0  0
    0.3442   -7.9496   19.0524 F   0  0  0  0  0  0  0  0  0  0  0  0
   -1.8336   -7.1413   20.2161 F   0  0  0  0  0  0  0  0  0  0  0  0
 28 29  2  0  0  0
 29 27  1  0  0  0
  1 27  1  0  0  0
  1  2  1  0  0  0
  2  3  1  0  0  0
  3  4  2  0  0  0
  4  5  1  0  0  0
  5  6  2  0  0  0
  6  7  1  0  0  0
  6  8  1  0  0  0
  8  9  2  0  0  0
  9 10  1  0  0  0
 10 13  1  0  0  0
 13 14  2  0  0  0
 13 15  1  0  0  0
 15 17  1  0  0  0
 17 18  2  0  0  0
 18 19  1  0  0  0
 19 20  2  0  0  0
 20 21  1  0  0  0
 21 22  2  0  0  0
 22 23  1  0  0  0
 23 24  2  0  0  0
 24 25  1  0  0  0
 25 26  2  0  0  0
 10 11  1  0  0  0
 29 30  1  0  0  0
 30 32  1  0  0  0
 32 33  1  0  0  0
 33 34  1  0  0  0
 34 35  2  0  0  0
 35 36  1  0  0  0
 36 37  2  0  0  0
 37 40  1  0  0  0
 40 41  1  0  0  0
 40 42  1  0  0  0
 37 38  1  0  0  0
 38 39  2  0  0  0
 11  1  1  0  0  0
 39 34  1  0  0  0
  9  3  1  0  0  0
 26 17  1  0  0  0
 26 21  1  0  0  0
  1 12  1  0  0  0
 15 16  1  0  0  0
 30 31  1  0  0  0
M  CHG 1   1   1
M  END
> <minimizedAffinity>
-8.66713

> <CNNscore>
0.3619244099

> <CNNaffinity>
6.3234338760

> <CNN_VS>
2.2886049747

> <CNNaffinity_variance>
0.3456877172

$$$$



 42 46  0  0  0  0  0  0  0  0999 V2000
    7.8770   -2.6164   23.2965 N   0  0  0  0  0  0  0  0  0  0  0  0
    8.5297   -3.5697   24.2530 C   0  0  0  0  0  0  0  0  0  0  0  0
    9.8723   -3.2441   24.8375 C   0  0  0  0  0  0  0  0  0  0  0  0
   10.5251   -4.1975   25.7940 C   0  0  0  0  0  0  0  0  0  0  0  0
   11.8676   -3.8718   26.3784 C   0  0  0  0  0  0  0  0  0  0  0  0
   12.5574   -2.5929   26.0062 C   0  0  0  0  0  0  0  0  0  0  0  0
   13.9000   -2.2673   26.5907 Cl  0  0  0  0  0  0  0  0  0  0  0  0
   11.9046   -1.6395   25.0497 C   0  0  0  0  0  0  0  0  0  0  0  0
   10.5621   -1.9652   24.4653 C   0  0  0  0  0  0  0  0  0  0  0  0
    9.9092   -1.0118   23.5087 C   0  0  0  0  0  0  0  0  0  0  0  0
    8.5667   -1.3374   22.9243 C   0  0  0  0  0  0  0  0  0  0  0  0
    7.4079   -3.4861   23.5496 H   0  0  0  0  0  0  0  0  0  0  0  0
   10.5990    0.2671   23.1366 C   0  0  0  0  0  0  0  0  0  0  0  0
   11.9543    0.2291   22.4947 O   0  0  0  0  0  0  0  0  0  0  0  0
    9.9336    1.5841   23.4062 N   0  0  0  0  0  0  0  0  0  0  0  0
    9.0441    1.6091   23.8275 H   0  0  0  0  0  0  0  0  0  0  0  0
   10.6233    2.8631   23.0341 C   0  0  0  0  0  0  0  0  0  0  0  0
   12.0752    2.8501   22.6572 C   0  0  0  0  0  0  0  0  0  0  0  0
   12.7649    4.1290   22.2851 N   0  0  0  0  0  0  0  0  0  0  0  0
   12.0029    5.4210   22.2897 C   0  0  0  0  0  0  0  0  0  0  0  0
   10.5510    5.4340   22.6666 C   0  0  0  0  0  0  0  0  0  0  0  0
    9.7889    6.7260   22.6712 C   0  0  0  0  0  0  0  0  0  0  0  0
    8.3371    6.7390   23.0480 C   0  0  0  0  0  0  0  0  0  0  0  0
    7.6474    5.4600   23.4202 C   0  0  0  0  0  0  0  0  0  0  0  0
    8.4094    4.1681   23.4155 C   0  0  0  0  0  0  0  0  0  0  0  0
    9.8612    4.1551   23.0387 C   0  0  0  0  0  0  0  0  0  0  0  0
    6.5344   -2.9420   22.7121 C   0  0  0  0  0  0  0  0  0  0  0  0
    4.8246   -4.7311   21.9210 O   0  0  0  0  0  0  0  0  0  0  0  0
    6.0328   -4.3556   22.7268 C   0  0  0  0  0  0  0  0  0  0  0  0
    6.7395   -5.3936   23.5472 N   0  0  0  0  0  0  0  0  0  0  0  0
    7.5325   -5.1470   24.0760 H   0  0  0  0  0  0  0  0  0  0  0  0
    6.2380   -6.8072   23.5619 C   0  0  0  0  0  0  0  0  0  0  0  0
    5.7546   -7.4182   24.8436 C   0  0  0  0  0  0  0  0  0  0  0  0
    4.2841   -7.5889   25.0854 C   0  0  0  0  0  0  0  0  0  0  0  0
    3.8031   -8.5340   26.1462 C   0  0  0  0  0  0  0  0  0  0  0  0
    2.3325   -8.7046   26.3879 C   0  0  0  0  0  0  0  0  0  0  0  0
    1.3430   -7.9301   25.5688 C   0  0  0  0  0  0  0  0  0  0  0  0
    1.8240   -6.9851   24.5079 C   0  0  0  0  0  0  0  0  0  0  0  0
    3.2945   -6.8144   24.2662 C   0  0  0  0  0  0  0  0  0  0  0  0
   -0.1276   -8.1008   25.8105 C   0  0  0  0  0  0  0  0  0  0  0  0
   -0.6100   -9.0844   26.8351 F   0  0  0  0  0  0  0  0  0  0  0  0
   -1.1156   -7.2878   25.0276 F   0  0  0  0  0  0  0  0  0  0  0  0
 28 29  2  0  0  0
 29 27  1  0  0  0
  1 27  1  0  0  0
  1  2  1  0  0  0
  2  3  1  0  0  0
  3  4  2  0  0  0
  4  5  1  0  0  0
  5  6  2  0  0  0
  6  7  1  0  0  0
  6  8  1  0  0  0
  8  9  2  0  0  0
  9 10  1  0  0  0
 10 13  1  0  0  0
 13 14  2  0  0  0
 13 15  1  0  0  0
 15 17  1  0  0  0
 17 18  2  0  0  0
 18 19  1  0  0  0
 19 20  2  0  0  0
 20 21  1  0  0  0
 21 22  2  0  0  0
 22 23  1  0  0  0
 23 24  2  0  0  0
 24 25  1  0  0  0
 25 26  2  0  0  0
 10 11  1  0  0  0
 29 30  1  0  0  0
 30 32  1  0  0  0
 32 33  1  0  0  0
 33 34  1  0  0  0
 34 35  2  0  0  0
 35 36  1  0  0  0
 36 37  2  0  0  0
 37 40  1  0  0  0
 40 41  1  0  0  0
 40 42  1  0  0  0
 37 38  1  0  0  0
 38 39  2  0  0  0
 11  1  1  0  0  0
 39 34  1  0  0  0
  9  3  1  0  0  0
 26 17  1  0  0  0
 26 21  1  0  0  0
  1 12  1  0  0  0
 15 16  1  0  0  0
 30 31  1  0  0  0
M  CHG 1   1   1
M  END
> <minimizedAffinity>
-7.89622

> <CNNscore>
0.3514015675

> <CNNaffinity>
6.4223961830

> <CNN_VS>
2.2568399906

> <CNNaffinity_variance>
0.1555872262

$$$$



 42 46  0  0  0  0  0  0  0  0999 V2000
    8.8983   -0.5438   22.0049 N   0  0  0  0  0  0  0  0  0  0  0  0
   10.2641   -0.1262   22.4632 C   0  0  0  0  0  0  0  0  0  0  0  0
   10.9876   -0.9349   23.4989 C   0  0  0  0  0  0  0  0  0  0  0  0
   12.3534   -0.5172   23.9572 C   0  0  0  0  0  0  0  0  0  0  0  0
   13.0768   -1.3259   24.9929 C   0  0  0  0  0  0  0  0  0  0  0  0
   12.4344   -2.5522   25.5703 C   0  0  0  0  0  0  0  0  0  0  0  0
   13.1578   -3.3609   26.6060 Cl  0  0  0  0  0  0  0  0  0  0  0  0
   11.0685   -2.9699   25.1120 C   0  0  0  0  0  0  0  0  0  0  0  0
   10.3451   -2.1612   24.0764 C   0  0  0  0  0  0  0  0  0  0  0  0
    8.9792   -2.5788   23.6180 C   0  0  0  0  0  0  0  0  0  0  0  0
    8.2558   -1.7701   22.5824 C   0  0  0  0  0  0  0  0  0  0  0  0
    9.3351    0.2901   21.6123 H   0  0  0  0  0  0  0  0  0  0  0  0
    8.3368   -3.8051   24.1955 C   0  0  0  0  0  0  0  0  0  0  0  0
    9.1406   -4.7426   25.0471 O   0  0  0  0  0  0  0  0  0  0  0  0
    6.8907   -4.0940   23.9214 N   0  0  0  0  0  0  0  0  0  0  0  0
    6.3631   -3.4787   23.3624 H   0  0  0  0  0  0  0  0  0  0  0  0
    6.2482   -5.3203   24.4988 C   0  0  0  0  0  0  0  0  0  0  0  0
    6.7149   -6.6815   24.0755 C   0  0  0  0  0  0  0  0  0  0  0  0
    6.0725   -7.9078   24.6529 N   0  0  0  0  0  0  0  0  0  0  0  0
    4.9633   -7.7729   25.6537 C   0  0  0  0  0  0  0  0  0  0  0  0
    4.4966   -6.4116   26.0770 C   0  0  0  0  0  0  0  0  0  0  0  0
    3.3874   -6.2767   27.0778 C   0  0  0  0  0  0  0  0  0  0  0  0
    2.9207   -4.9155   27.5011 C   0  0  0  0  0  0  0  0  0  0  0  0
    3.5631   -3.6892   26.9236 C   0  0  0  0  0  0  0  0  0  0  0  0
    4.6723   -3.8241   25.9229 C   0  0  0  0  0  0  0  0  0  0  0  0
    5.1390   -5.1853   25.4996 C   0  0  0  0  0  0  0  0  0  0  0  0
    8.1748    0.2649   20.9692 C   0  0  0  0  0  0  0  0  0  0  0  0
    6.0626   -1.2277   21.2154 O   0  0  0  0  0  0  0  0  0  0  0  0
    6.7154    0.0275   20.7171 C   0  0  0  0  0  0  0  0  0  0  0  0
    5.9087    1.0453   19.9666 N   0  0  0  0  0  0  0  0  0  0  0  0
    6.3371    1.8692   19.6395 H   0  0  0  0  0  0  0  0  0  0  0  0
    4.4492    0.8080   19.7144 C   0  0  0  0  0  0  0  0  0  0  0  0
    3.6606    1.7867   18.8957 C   0  0  0  0  0  0  0  0  0  0  0  0
    2.6945    2.7182   19.5657 C   0  0  0  0  0  0  0  0  0  0  0  0
    3.1939    3.7415   20.5421 C   0  0  0  0  0  0  0  0  0  0  0  0
    2.2277    4.6731   21.2121 C   0  0  0  0  0  0  0  0  0  0  0  0
    0.7622    4.5812   20.9057 C   0  0  0  0  0  0  0  0  0  0  0  0
    0.2629    3.5578   19.9293 C   0  0  0  0  0  0  0  0  0  0  0  0
    1.2290    2.6263   19.2593 C   0  0  0  0  0  0  0  0  0  0  0  0
   -0.2039    5.5127   21.5757 C   0  0  0  0  0  0  0  0  0  0  0  0
   -0.2532    5.5925   23.0728 F   0  0  0  0  0  0  0  0  0  0  0  0
   -1.1208    6.3643   20.7487 F   0  0  0  0  0  0  0  0  0  0  0  0
 28 29  2  0  0  0
 29 27  1  0  0  0
  1 27  1  0  0  0
  1  2  1  0  0  0
  2  3  1  0  0  0
  3  4  2  0  0  0
  4  5  1  0  0  0
  5  6  2  0  0  0
  6  7  1  0  0  0
  6  8  1  0  0  0
  8  9  2  0  0  0
  9 10  1  0  0  0
 10 13  1  0  0  0
 13 14  2  0  0  0
 13 15  1  0  0  0
 15 17  1  0  0  0
 17 18  2  0  0  0
 18 19  1  0  0  0
 19 20  2  0  0  0
 20 21  1  0  0  0
 21 22  2  0  0  0
 22 23  1  0  0  0
 23 24  2  0  0  0
 24 25  1  0  0  0
 25 26  2  0  0  0
 10 11  1  0  0  0
 29 30  1  0  0  0
 30 32  1  0  0  0
 32 33  1  0  0  0
 33 34  1  0  0  0
 34 35  2  0  0  0
 35 36  1  0  0  0
 36 37  2  0  0  0
 37 40  1  0  0  0
 40 41  1  0  0  0
 40 42  1  0  0  0
 37 38  1  0  0  0
 38 39  2  0  0  0
 11  1  1  0  0  0
 39 34  1  0  0  0
  9  3  1  0  0  0
 26 17  1  0  0  0
 26 21  1  0  0  0
  1 12  1  0  0  0
 15 16  1  0  0  0
 30 31  1  0  0  0
M  CHG 1   1   1
M  END
> <minimizedAffinity>
-8.57221

> <CNNscore>
0.3216252923

> <CNNaffinity>
6.1734514236

> <CNN_VS>
1.9855381250

> <CNNaffinity_variance>
0.0966035426

$$$$



 42 46  0  0  0  0  0  0  0  0999 V2000
    3.9910   -2.3131   26.2761 N   0  0  0  0  0  0  0  0  0  0  0  0
    3.6576   -3.7562   26.0395 C   0  0  0  0  0  0  0  0  0  0  0  0
    4.6836   -4.6755   25.4460 C   0  0  0  0  0  0  0  0  0  0  0  0
    4.3502   -6.1187   25.2093 C   0  0  0  0  0  0  0  0  0  0  0  0
    5.3763   -7.0379   24.6158 C   0  0  0  0  0  0  0  0  0  0  0  0
    6.7357   -6.5139   24.2591 C   0  0  0  0  0  0  0  0  0  0  0  0
    7.7618   -7.4332   23.6656 Cl  0  0  0  0  0  0  0  0  0  0  0  0
    7.0692   -5.0708   24.4957 C   0  0  0  0  0  0  0  0  0  0  0  0
    6.0431   -4.1516   25.0892 C   0  0  0  0  0  0  0  0  0  0  0  0
    6.3765   -2.7083   25.3259 C   0  0  0  0  0  0  0  0  0  0  0  0
    5.3505   -1.7891   25.9193 C   0  0  0  0  0  0  0  0  0  0  0  0
    3.0666   -2.6693   26.5187 H   0  0  0  0  0  0  0  0  0  0  0  0
    7.7360   -2.1844   24.9691 C   0  0  0  0  0  0  0  0  0  0  0  0
    8.2568   -0.9407   25.6266 O   0  0  0  0  0  0  0  0  0  0  0  0
    8.5747   -2.9040   23.9548 N   0  0  0  0  0  0  0  0  0  0  0  0
    8.2329   -3.7202   23.5233 H   0  0  0  0  0  0  0  0  0  0  0  0
    9.9342   -2.3800   23.5981 C   0  0  0  0  0  0  0  0  0  0  0  0
   10.1465   -1.6731   22.2923 C   0  0  0  0  0  0  0  0  0  0  0  0
   11.5060   -1.1492   21.9355 N   0  0  0  0  0  0  0  0  0  0  0  0
   12.6531   -1.3321   22.8845 C   0  0  0  0  0  0  0  0  0  0  0  0
   12.4408   -2.0390   24.1904 C   0  0  0  0  0  0  0  0  0  0  0  0
   13.5878   -2.2219   25.1394 C   0  0  0  0  0  0  0  0  0  0  0  0
   13.3755   -2.9288   26.4452 C   0  0  0  0  0  0  0  0  0  0  0  0
   12.0160   -3.4528   26.8020 C   0  0  0  0  0  0  0  0  0  0  0  0
   10.8689   -3.2698   25.8530 C   0  0  0  0  0  0  0  0  0  0  0  0
   11.0813   -2.5630   24.5472 C   0  0  0  0  0  0  0  0  0  0  0  0
    2.9649   -1.3938   26.8696 C   0  0  0  0  0  0  0  0  0  0  0  0
    0.6368   -0.7931   25.8854 O   0  0  0  0  0  0  0  0  0  0  0  0
    2.1131   -0.5431   25.9748 C   0  0  0  0  0  0  0  0  0  0  0  0
    2.7376    0.5575   25.1695 N   0  0  0  0  0  0  0  0  0  0  0  0
    3.7065    0.7216   25.2282 H   0  0  0  0  0  0  0  0  0  0  0  0
    1.8857    1.4083   24.2747 C   0  0  0  0  0  0  0  0  0  0  0  0
    2.5280    2.3829   23.3326 C   0  0  0  0  0  0  0  0  0  0  0  0
    3.2639    1.8844   22.1245 C   0  0  0  0  0  0  0  0  0  0  0  0
    4.5423    1.1170   22.2887 C   0  0  0  0  0  0  0  0  0  0  0  0
    5.2782    0.6184   21.0804 C   0  0  0  0  0  0  0  0  0  0  0  0
    4.7358    0.8872   19.7080 C   0  0  0  0  0  0  0  0  0  0  0  0
    3.4575    1.6547   19.5438 C   0  0  0  0  0  0  0  0  0  0  0  0
    2.7216    2.1532   20.7520 C   0  0  0  0  0  0  0  0  0  0  0  0
    5.4718    0.3887   18.4997 C   0  0  0  0  0  0  0  0  0  0  0  0
    4.8169    0.4342   17.1510 F   0  0  0  0  0  0  0  0  0  0  0  0
    6.8625   -0.1554   18.6402 F   0  0  0  0  0  0  0  0  0  0  0  0
 28 29  2  0  0  0
 29 27  1  0  0  0
  1 27  1  0  0  0
  1  2  1  0  0  0
  2  3  1  0  0  0
  3  4  2  0  0  0
  4  5  1  0  0  0
  5  6  2  0  0  0
  6  7  1  0  0  0
  6  8  1  0  0  0
  8  9  2  0  0  0
  9 10  1  0  0  0
 10 13  1  0  0  0
 13 14  2  0  0  0
 13 15  1  0  0  0
 15 17  1  0  0  0
 17 18  2  0  0  0
 18 19  1  0  0  0
 19 20  2  0  0  0
 20 21  1  0  0  0
 21 22  2  0  0  0
 22 23  1  0  0  0
 23 24  2  0  0  0
 24 25  1  0  0  0
 25 26  2  0  0  0
 10 11  1  0  0  0
 29 30  1  0  0  0
 30 32  1  0  0  0
 32 33  1  0  0  0
 33 34  1  0  0  0
 34 35  2  0  0  0
 35 36  1  0  0  0
 36 37  2  0  0  0
 37 40  1  0  0  0
 40 41  1  0  0  0
 40 42  1  0  0  0
 37 38  1  0  0  0
 38 39  2  0  0  0
 11  1  1  0  0  0
 39 34  1  0  0  0
  9  3  1  0  0  0
 26 17  1  0  0  0
 26 21  1  0  0  0
  1 12  1  0  0  0
 15 16  1  0  0  0
 30 31  1  0  0  0
M  CHG 1   1   1
M  END
> <minimizedAffinity>
-8.08301

> <CNNscore>
0.2803608477

> <CNNaffinity>
6.3729581833

> <CNN_VS>
1.7867279053

> <CNNaffinity_variance>
0.4687188268

$$$$



 42 46  0  0  0  0  0  0  0  0999 V2000
    8.6277   -0.8770   21.7104 N   0  0  0  0  0  0  0  0  0  0  0  0
    9.9633   -0.3764   22.1746 C   0  0  0  0  0  0  0  0  0  0  0  0
   10.6727   -1.0668   23.3017 C   0  0  0  0  0  0  0  0  0  0  0  0
   12.0083   -0.5662   23.7659 C   0  0  0  0  0  0  0  0  0  0  0  0
   12.7177   -1.2566   24.8928 C   0  0  0  0  0  0  0  0  0  0  0  0
   12.0914   -2.4476   25.5556 C   0  0  0  0  0  0  0  0  0  0  0  0
   12.8008   -3.1381   26.6826 Cl  0  0  0  0  0  0  0  0  0  0  0  0
   10.7558   -2.9482   25.0914 C   0  0  0  0  0  0  0  0  0  0  0  0
   10.0465   -2.2578   23.9644 C   0  0  0  0  0  0  0  0  0  0  0  0
    8.7108   -2.7584   23.5002 C   0  0  0  0  0  0  0  0  0  0  0  0
    8.0015   -2.0680   22.3732 C   0  0  0  0  0  0  0  0  0  0  0  0
    9.0536   -0.0671   21.2597 H   0  0  0  0  0  0  0  0  0  0  0  0
    8.0845   -3.9494   24.1629 C   0  0  0  0  0  0  0  0  0  0  0  0
    8.9424   -4.9354   24.8992 O   0  0  0  0  0  0  0  0  0  0  0  0
    6.6004   -4.1545   24.0895 N   0  0  0  0  0  0  0  0  0  0  0  0
    6.0374   -3.5074   23.6063 H   0  0  0  0  0  0  0  0  0  0  0  0
    5.9742   -5.3455   24.7523 C   0  0  0  0  0  0  0  0  0  0  0  0
    6.2860   -6.7278   24.2604 C   0  0  0  0  0  0  0  0  0  0  0  0
    5.6597   -7.9188   24.9231 N   0  0  0  0  0  0  0  0  0  0  0  0
    4.7216   -7.7275   26.0779 C   0  0  0  0  0  0  0  0  0  0  0  0
    4.4098   -6.3452   26.5699 C   0  0  0  0  0  0  0  0  0  0  0  0
    3.4717   -6.1539   27.7246 C   0  0  0  0  0  0  0  0  0  0  0  0
    3.1600   -4.7717   28.2165 C   0  0  0  0  0  0  0  0  0  0  0  0
    3.7862   -3.5806   27.5537 C   0  0  0  0  0  0  0  0  0  0  0  0
    4.7243   -3.7719   26.3990 C   0  0  0  0  0  0  0  0  0  0  0  0
    5.0361   -5.1542   25.9071 C   0  0  0  0  0  0  0  0  0  0  0  0
    7.9183   -0.1865   20.5834 C   0  0  0  0  0  0  0  0  0  0  0  0
    5.3385   -0.3274   20.3104 O   0  0  0  0  0  0  0  0  0  0  0  0
    6.5550    0.3994   20.8022 C   0  0  0  0  0  0  0  0  0  0  0  0
    6.4081    1.7121   21.5130 N   0  0  0  0  0  0  0  0  0  0  0  0
    7.2066    2.1891   21.8358 H   0  0  0  0  0  0  0  0  0  0  0  0
    5.0448    2.2981   21.7319 C   0  0  0  0  0  0  0  0  0  0  0  0
    4.5911    3.4690   20.9114 C   0  0  0  0  0  0  0  0  0  0  0  0
    3.1420    3.6176   20.5537 C   0  0  0  0  0  0  0  0  0  0  0  0
    2.3683    4.8081   21.0375 C   0  0  0  0  0  0  0  0  0  0  0  0
    0.9192    4.9567   20.6798 C   0  0  0  0  0  0  0  0  0  0  0  0
    0.2438    3.9148   19.8382 C   0  0  0  0  0  0  0  0  0  0  0  0
    1.0175    2.7243   19.3544 C   0  0  0  0  0  0  0  0  0  0  0  0
    2.4665    2.5757   19.7121 C   0  0  0  0  0  0  0  0  0  0  0  0
   -1.2054    4.0634   19.4804 C   0  0  0  0  0  0  0  0  0  0  0  0
   -2.2314    3.1785   20.1241 F   0  0  0  0  0  0  0  0  0  0  0  0
   -1.6285    5.0969   18.4790 F   0  0  0  0  0  0  0  0  0  0  0  0
 28 29  2  0  0  0
 29 27  1  0  0  0
  1 27  1  0  0  0
  1  2  1  0  0  0
  2  3  1  0  0  0
  3  4  2  0  0  0
  4  5  1  0  0  0
  5  6  2  0  0  0
  6  7  1  0  0  0
  6  8  1  0  0  0
  8  9  2  0  0  0
  9 10  1  0  0  0
 10 13  1  0  0  0
 13 14  2  0  0  0
 13 15  1  0  0  0
 15 17  1  0  0  0
 17 18  2  0  0  0
 18 19  1  0  0  0
 19 20  2  0  0  0
 20 21  1  0  0  0
 21 22  2  0  0  0
 22 23  1  0  0  0
 23 24  2  0  0  0
 24 25  1  0  0  0
 25 26  2  0  0  0
 10 11  1  0  0  0
 29 30  1  0  0  0
 30 32  1  0  0  0
 32 33  1  0  0  0
 33 34  1  0  0  0
 34 35  2  0  0  0
 35 36  1  0  0  0
 36 37  2  0  0  0
 37 40  1  0  0  0
 40 41  1  0  0  0
 40 42  1  0  0  0
 37 38  1  0  0  0
 38 39  2  0  0  0
 11  1  1  0  0  0
 39 34  1  0  0  0
  9  3  1  0  0  0
 26 17  1  0  0  0
 26 21  1  0  0  0
  1 12  1  0  0  0
 15 16  1  0  0  0
 30 31  1  0  0  0
M  CHG 1   1   1
M  END
> <minimizedAffinity>
-8.43238

> <CNNscore>
0.2436978966

> <CNNaffinity>
6.0849065781

> <CNN_VS>
1.4828789234

> <CNNaffinity_variance>
0.1088963002

$$$$



 42 46  0  0  0  0  0  0  0  0999 V2000
    8.5063   -0.8601   21.6483 N   0  0  0  0  0  0  0  0  0  0  0  0
    9.8488   -0.3467   22.0773 C   0  0  0  0  0  0  0  0  0  0  0  0
   10.5945   -1.0304   23.1848 C   0  0  0  0  0  0  0  0  0  0  0  0
   11.9370   -0.5170   23.6138 C   0  0  0  0  0  0  0  0  0  0  0  0
   12.6825   -1.2008   24.7213 C   0  0  0  0  0  0  0  0  0  0  0  0
   12.0855   -2.3979   25.3998 C   0  0  0  0  0  0  0  0  0  0  0  0
   12.8311   -3.0817   26.5074 Cl  0  0  0  0  0  0  0  0  0  0  0  0
   10.7430   -2.9113   24.9709 C   0  0  0  0  0  0  0  0  0  0  0  0
    9.9975   -2.2276   23.8634 C   0  0  0  0  0  0  0  0  0  0  0  0
    8.6549   -2.7410   23.4344 C   0  0  0  0  0  0  0  0  0  0  0  0
    7.9094   -2.0572   22.3269 C   0  0  0  0  0  0  0  0  0  0  0  0
    8.9123   -0.0460   21.1869 H   0  0  0  0  0  0  0  0  0  0  0  0
    8.0579   -3.9381   24.1129 C   0  0  0  0  0  0  0  0  0  0  0  0
    8.9168   -4.8207   24.9694 O   0  0  0  0  0  0  0  0  0  0  0  0
    6.6021   -4.2527   23.9351 N   0  0  0  0  0  0  0  0  0  0  0  0
    6.0384   -3.6735   23.3730 H   0  0  0  0  0  0  0  0  0  0  0  0
    6.0052   -5.4499   24.6136 C   0  0  0  0  0  0  0  0  0  0  0  0
    6.3661   -6.8309   24.1527 C   0  0  0  0  0  0  0  0  0  0  0  0
    5.7691   -8.0280   24.8312 N   0  0  0  0  0  0  0  0  0  0  0  0
    4.8112   -7.8442   25.9708 C   0  0  0  0  0  0  0  0  0  0  0  0
    4.4503   -6.4631   26.4318 C   0  0  0  0  0  0  0  0  0  0  0  0
    3.4924   -6.2793   27.5714 C   0  0  0  0  0  0  0  0  0  0  0  0
    3.1315   -4.8983   28.0324 C   0  0  0  0  0  0  0  0  0  0  0  0
    3.7285   -3.7011   27.3538 C   0  0  0  0  0  0  0  0  0  0  0  0
    4.6863   -3.8850   26.2142 C   0  0  0  0  0  0  0  0  0  0  0  0
    5.0472   -5.2660   25.7533 C   0  0  0  0  0  0  0  0  0  0  0  0
    7.7607   -0.1763   20.5407 C   0  0  0  0  0  0  0  0  0  0  0  0
    5.2501   -0.5736   21.0783 O   0  0  0  0  0  0  0  0  0  0  0  0
    6.3834    0.3647   20.7862 C   0  0  0  0  0  0  0  0  0  0  0  0
    6.1393    1.8439   20.7394 N   0  0  0  0  0  0  0  0  0  0  0  0
    6.8831    2.4597   20.5477 H   0  0  0  0  0  0  0  0  0  0  0  0
    4.7619    2.3849   20.9848 C   0  0  0  0  0  0  0  0  0  0  0  0
    4.5377    3.4049   22.0615 C   0  0  0  0  0  0  0  0  0  0  0  0
    4.7490    4.8612   21.7708 C   0  0  0  0  0  0  0  0  0  0  0  0
    3.5880    5.8101   21.8106 C   0  0  0  0  0  0  0  0  0  0  0  0
    3.7994    7.2665   21.5199 C   0  0  0  0  0  0  0  0  0  0  0  0
    5.1717    7.7738   21.1893 C   0  0  0  0  0  0  0  0  0  0  0  0
    6.3327    6.8248   21.1495 C   0  0  0  0  0  0  0  0  0  0  0  0
    6.1214    5.3685   21.4402 C   0  0  0  0  0  0  0  0  0  0  0  0
    5.3831    9.2301   20.8986 C   0  0  0  0  0  0  0  0  0  0  0  0
    6.6399    9.9110   21.3535 F   0  0  0  0  0  0  0  0  0  0  0  0
    4.3378   10.0055   20.1529 F   0  0  0  0  0  0  0  0  0  0  0  0
 28 29  2  0  0  0
 29 27  1  0  0  0
  1 27  1  0  0  0
  1  2  1  0  0  0
  2  3  1  0  0  0
  3  4  2  0  0  0
  4  5  1  0  0  0
  5  6  2  0  0  0
  6  7  1  0  0  0
  6  8  1  0  0  0
  8  9  2  0  0  0
  9 10  1  0  0  0
 10 13  1  0  0  0
 13 14  2  0  0  0
 13 15  1  0  0  0
 15 17  1  0  0  0
 17 18  2  0  0  0
 18 19  1  0  0  0
 19 20  2  0  0  0
 20 21  1  0  0  0
 21 22  2  0  0  0
 22 23  1  0  0  0
 23 24  2  0  0  0
 24 25  1  0  0  0
 25 26  2  0  0  0
 10 11  1  0  0  0
 29 30  1  0  0  0
 30 32  1  0  0  0
 32 33  1  0  0  0
 33 34  1  0  0  0
 34 35  2  0  0  0
 35 36  1  0  0  0
 36 37  2  0  0  0
 37 40  1  0  0  0
 40 41  1  0  0  0
 40 42  1  0  0  0
 37 38  1  0  0  0
 38 39  2  0  0  0
 11  1  1  0  0  0
 39 34  1  0  0  0
  9  3  1  0  0  0
 26 17  1  0  0  0
 26 21  1  0  0  0
  1 12  1  0  0  0
 15 16  1  0  0  0
 30 31  1  0  0  0
M  CHG 1   1   1
M  END
> <minimizedAffinity>
-7.99752

> <CNNscore>
0.2332296818

> <CNNaffinity>
6.1611046791

> <CNN_VS>
1.4369524717

> <CNNaffinity_variance>
0.1421027184

$$$$



 42 46  0  0  0  0  0  0  0  0999 V2000
    8.3633   -3.7923   24.0811 N   0  0  0  0  0  0  0  0  0  0  0  0
    9.6757   -3.3710   24.6725 C   0  0  0  0  0  0  0  0  0  0  0  0
   10.3268   -2.0967   24.2224 C   0  0  0  0  0  0  0  0  0  0  0  0
   11.6392   -1.6755   24.8138 C   0  0  0  0  0  0  0  0  0  0  0  0
   12.2902   -0.4013   24.3636 C   0  0  0  0  0  0  0  0  0  0  0  0
   11.6286    0.4516   23.3220 C   0  0  0  0  0  0  0  0  0  0  0  0
   12.2796    1.7258   22.8718 Cl  0  0  0  0  0  0  0  0  0  0  0  0
   10.3161    0.0303   22.7306 C   0  0  0  0  0  0  0  0  0  0  0  0
    9.6652   -1.2439   23.1808 C   0  0  0  0  0  0  0  0  0  0  0  0
    8.3526   -1.6652   22.5893 C   0  0  0  0  0  0  0  0  0  0  0  0
    7.7017   -2.9394   23.0395 C   0  0  0  0  0  0  0  0  0  0  0  0
    8.8131   -4.3722   24.7894 H   0  0  0  0  0  0  0  0  0  0  0  0
    7.6911   -0.8124   21.5477 C   0  0  0  0  0  0  0  0  0  0  0  0
    8.3746    0.4255   21.0471 O   0  0  0  0  0  0  0  0  0  0  0  0
    6.3461   -1.1973   21.0067 N   0  0  0  0  0  0  0  0  0  0  0  0
    5.8975   -2.0097   21.3353 H   0  0  0  0  0  0  0  0  0  0  0  0
    5.6845   -0.3444   19.9651 C   0  0  0  0  0  0  0  0  0  0  0  0
    6.0897   -0.4683   18.5262 C   0  0  0  0  0  0  0  0  0  0  0  0
    5.4282    0.3846   17.4846 N   0  0  0  0  0  0  0  0  0  0  0  0
    4.3614    1.3613   17.8819 C   0  0  0  0  0  0  0  0  0  0  0  0
    3.9561    1.4853   19.3208 C   0  0  0  0  0  0  0  0  0  0  0  0
    2.8894    2.4620   19.7181 C   0  0  0  0  0  0  0  0  0  0  0  0
    2.4842    2.5859   21.1570 C   0  0  0  0  0  0  0  0  0  0  0  0
    3.1457    1.7331   22.1986 C   0  0  0  0  0  0  0  0  0  0  0  0
    4.2125    0.7563   21.8013 C   0  0  0  0  0  0  0  0  0  0  0  0
    4.6177    0.6324   20.3624 C   0  0  0  0  0  0  0  0  0  0  0  0
    7.7122   -5.0665   24.5313 C   0  0  0  0  0  0  0  0  0  0  0  0
    7.0486   -6.9527   22.8725 O   0  0  0  0  0  0  0  0  0  0  0  0
    6.6851   -5.7312   23.6635 C   0  0  0  0  0  0  0  0  0  0  0  0
    5.2944   -5.1744   23.5868 N   0  0  0  0  0  0  0  0  0  0  0  0
    5.0558   -4.3727   24.1060 H   0  0  0  0  0  0  0  0  0  0  0  0
    4.2671   -5.8391   22.7190 C   0  0  0  0  0  0  0  0  0  0  0  0
    3.2057   -6.6994   23.3380 C   0  0  0  0  0  0  0  0  0  0  0  0
    3.2358   -6.9847   24.8103 C   0  0  0  0  0  0  0  0  0  0  0  0
    2.2676   -6.2979   25.7273 C   0  0  0  0  0  0  0  0  0  0  0  0
    2.2977   -6.5833   27.1997 C   0  0  0  0  0  0  0  0  0  0  0  0
    3.2959   -7.5554   27.7549 C   0  0  0  0  0  0  0  0  0  0  0  0
    4.2641   -8.2423   26.8380 C   0  0  0  0  0  0  0  0  0  0  0  0
    4.2340   -7.9570   25.3657 C   0  0  0  0  0  0  0  0  0  0  0  0
    3.3260   -7.8408   29.2273 C   0  0  0  0  0  0  0  0  0  0  0  0
    2.0488   -7.8611   30.0136 F   0  0  0  0  0  0  0  0  0  0  0  0
    4.6333   -8.1058   29.9133 F   0  0  0  0  0  0  0  0  0  0  0  0
 28 29  2  0  0  0
 29 27  1  0  0  0
  1 27  1  0  0  0
  1  2  1  0  0  0
  2  3  1  0  0  0
  3  4  2  0  0  0
  4  5  1  0  0  0
  5  6  2  0  0  0
  6  7  1  0  0  0
  6  8  1  0  0  0
  8  9  2  0  0  0
  9 10  1  0  0  0
 10 13  1  0  0  0
 13 14  2  0  0  0
 13 15  1  0  0  0
 15 17  1  0  0  0
 17 18  2  0  0  0
 18 19  1  0  0  0
 19 20  2  0  0  0
 20 21  1  0  0  0
 21 22  2  0  0  0
 22 23  1  0  0  0
 23 24  2  0  0  0
 24 25  1  0  0  0
 25 26  2  0  0  0
 10 11  1  0  0  0
 29 30  1  0  0  0
 30 32  1  0  0  0
 32 33  1  0  0  0
 33 34  1  0  0  0
 34 35  2  0  0  0
 35 36  1  0  0  0
 36 37  2  0  0  0
 37 40  1  0  0  0
 40 41  1  0  0  0
 40 42  1  0  0  0
 37 38  1  0  0  0
 38 39  2  0  0  0
 11  1  1  0  0  0
 39 34  1  0  0  0
  9  3  1  0  0  0
 26 17  1  0  0  0
 26 21  1  0  0  0
  1 12  1  0  0  0
 15 16  1  0  0  0
 30 31  1  0  0  0
M  CHG 1   1   1
M  END
> <minimizedAffinity>
-8.40285

> <CNNscore>
0.2215300649

> <CNNaffinity>
6.2118973732

> <CNN_VS>
1.3761219978

> <CNNaffinity_variance>
0.2374713719

$$$$
