


 43 49  0  0  0  0  0  0  0  0999 V2000
    9.6989    0.2747   22.7432 N   0  0  0  0  0  0  0  0  0  0  0  0
    8.5514   -0.6862   22.6432 C   0  0  0  0  0  0  0  0  0  0  0  0
    8.5362   -1.9265   23.4866 C   0  0  0  0  0  0  0  0  0  0  0  0
    8.3835   -3.2012   24.2623 C   0  0  0  0  0  0  0  0  0  0  0  0
    8.9694   -3.8560   25.1015 O   0  0  0  0  0  0  0  0  0  0  0  0
    7.0928   -3.8439   23.8485 N   0  0  0  0  0  0  0  0  0  0  0  0
    6.4479   -2.9664   22.8170 C   0  0  0  0  0  0  0  0  0  0  0  0
    7.3400   -1.7814   22.5933 C   0  0  0  0  0  0  0  0  0  0  0  0
    9.6685   -2.2060   24.4299 C   0  0  0  0  0  0  0  0  0  0  0  0
    9.6533   -3.4464   25.2733 C   0  0  0  0  0  0  0  0  0  0  0  0
   10.7855   -3.7259   26.2166 C   0  0  0  0  0  0  0  0  0  0  0  0
   10.7703   -4.9663   27.0600 Cl  0  0  0  0  0  0  0  0  0  0  0  0
   11.9330   -2.7650   26.3165 C   0  0  0  0  0  0  0  0  0  0  0  0
   11.9482   -1.5246   25.4732 C   0  0  0  0  0  0  0  0  0  0  0  0
   10.8160   -1.2452   24.5299 C   0  0  0  0  0  0  0  0  0  0  0  0
   10.8312   -0.0048   23.6865 C   0  0  0  0  0  0  0  0  0  0  0  0
   11.9786    0.9561   23.7865 O   0  0  0  0  0  0  0  0  0  0  0  0
    6.5436   -5.1371   24.3740 C   0  0  0  0  0  0  0  0  0  0  0  0
    7.0613   -6.4418   23.8452 C   0  0  0  0  0  0  0  0  0  0  0  0
    6.5121   -7.7350   24.3707 N   0  0  0  0  0  0  0  0  0  0  0  0
    5.4452   -7.7233   25.4249 C   0  0  0  0  0  0  0  0  0  0  0  0
    4.9275   -6.4186   25.9537 C   0  0  0  0  0  0  0  0  0  0  0  0
    3.8605   -6.4070   27.0080 C   0  0  0  0  0  0  0  0  0  0  0  0
    3.3428   -5.1022   27.5367 C   0  0  0  0  0  0  0  0  0  0  0  0
    3.8920   -3.8091   27.0113 C   0  0  0  0  0  0  0  0  0  0  0  0
    4.9590   -3.8207   25.9570 C   0  0  0  0  0  0  0  0  0  0  0  0
    5.4767   -5.1254   25.4282 C   0  0  0  0  0  0  0  0  0  0  0  0
    9.7141    1.5151   21.8998 C   0  0  0  0  0  0  0  0  0  0  0  0
   10.5540    6.3989   23.7229 C   0  0  0  0  0  0  0  0  0  0  0  0
   10.7834    4.9983   23.2375 C   0  0  0  0  0  0  0  0  0  0  0  0
   12.1141    4.3199   23.0994 N   0  0  0  0  0  0  0  0  0  0  0  0
   11.8755    2.9325   22.5814 N   0  0  0  0  0  0  0  0  0  0  0  0
   10.3973    2.7535   22.3995 C   0  0  0  0  0  0  0  0  0  0  0  0
    9.7224    4.0303   22.8049 O   0  0  0  0  0  0  0  0  0  0  0  0
    7.0812   -0.6500   21.6431 C   0  0  0  0  0  0  0  0  0  0  0  0
    6.6648   -0.9367   20.2310 N   0  0  0  0  0  0  0  0  0  0  0  0
    7.0256   -1.7233   19.7615 H   0  0  0  0  0  0  0  0  0  0  0  0
    5.6987   -0.0252   19.5340 C   0  0  0  0  0  0  0  0  0  0  0  0
    4.6097    0.6507   20.3132 C   0  0  0  0  0  0  0  0  0  0  0  0
    3.6437    1.5622   19.6163 C   0  0  0  0  0  0  0  0  0  0  0  0
    3.7666    1.7979   18.1400 N   0  0  0  0  0  0  0  0  0  0  0  0
    4.8556    1.1221   17.3608 C   0  0  0  0  0  0  0  0  0  0  0  0
    5.8217    0.2105   18.0577 N   0  0  0  0  0  0  0  0  0  0  0  0
 29 30  1  0  0  0
 30 31  2  0  0  0
 31 32  1  0  0  0
 32 33  2  0  0  0
 33 28  1  0  0  0
 28  1  1  0  0  0
  1  2  1  0  0  0
  3  2  1  0  0  0
  3  4  1  0  0  0
  4  5  2  0  0  0
  4  6  1  0  0  0
  6 18  1  0  0  0
 18 19  2  0  0  0
 19 20  1  0  0  0
 20 21  2  0  0  0
 21 22  1  0  0  0
 22 23  2  0  0  0
 23 24  1  0  0  0
 24 25  2  0  0  0
 25 26  1  0  0  0
 26 27  2  0  0  0
  6  7  1  0  0  0
  7  8  1  0  0  0
  8 35  1  0  0  0
 35 36  1  0  0  0
 36 38  1  0  0  0
 38 39  2  0  0  0
 39 40  1  0  0  0
 40 41  2  0  0  0
 41 42  1  0  0  0
 42 43  2  0  0  0
  3  9  1  0  0  0
  9 10  2  0  0  0
 10 11  1  0  0  0
 11 12  1  0  0  0
 11 13  2  0  0  0
 13 14  1  0  0  0
 14 15  2  0  0  0
 15 16  1  0  0  0
 16 17  2  0  0  0
 33 34  1  0  0  0
 34 30  1  0  0  0
 16  1  1  0  0  0
  8  3  1  0  0  0
 43 38  1  0  0  0
 15  9  1  0  0  0
 27 18  1  0  0  0
 27 22  1  0  0  0
 36 37  1  0  0  0
M  END
> <minimizedAffinity>
-9.30935

> <CNNscore>
0.3452100158

> <CNNaffinity>
7.2630720139

> <CNN_VS>
2.5072851181

> <CNNaffinity_variance>
0.1931647956

$$$$



 43 49  0  0  0  0  0  0  0  0999 V2000
    9.8911    0.3855   22.9615 N   0  0  0  0  0  0  0  0  0  0  0  0
    8.7312   -0.5533   22.8080 C   0  0  0  0  0  0  0  0  0  0  0  0
    8.7074   -1.8464   23.5676 C   0  0  0  0  0  0  0  0  0  0  0  0
    8.5452   -3.1678   24.2587 C   0  0  0  0  0  0  0  0  0  0  0  0
    9.1296   -3.8835   25.0477 O   0  0  0  0  0  0  0  0  0  0  0  0
    7.2437   -3.7667   23.8143 N   0  0  0  0  0  0  0  0  0  0  0  0
    6.6015   -2.8154   22.8486 C   0  0  0  0  0  0  0  0  0  0  0  0
    7.5061   -1.6286   22.6961 C   0  0  0  0  0  0  0  0  0  0  0  0
    9.8435   -2.2010   24.4807 C   0  0  0  0  0  0  0  0  0  0  0  0
    9.8197   -3.4942   25.2403 C   0  0  0  0  0  0  0  0  0  0  0  0
   10.9558   -3.8486   26.1534 C   0  0  0  0  0  0  0  0  0  0  0  0
   10.9320   -5.1419   26.9131 Cl  0  0  0  0  0  0  0  0  0  0  0  0
   12.1156   -2.9099   26.3068 C   0  0  0  0  0  0  0  0  0  0  0  0
   12.1394   -1.6167   25.5472 C   0  0  0  0  0  0  0  0  0  0  0  0
   11.0033   -1.2622   24.6342 C   0  0  0  0  0  0  0  0  0  0  0  0
   11.0271    0.0310   23.8745 C   0  0  0  0  0  0  0  0  0  0  0  0
   12.1869    0.9698   24.0280 O   0  0  0  0  0  0  0  0  0  0  0  0
    6.6828   -5.0853   24.2578 C   0  0  0  0  0  0  0  0  0  0  0  0
    7.2619   -6.3633   23.7272 C   0  0  0  0  0  0  0  0  0  0  0  0
    6.7011   -7.6819   24.1708 N   0  0  0  0  0  0  0  0  0  0  0  0
    5.5612   -7.7225   25.1449 C   0  0  0  0  0  0  0  0  0  0  0  0
    4.9821   -6.4446   25.6755 C   0  0  0  0  0  0  0  0  0  0  0  0
    3.8421   -6.4852   26.6497 C   0  0  0  0  0  0  0  0  0  0  0  0
    3.2631   -5.2072   27.1802 C   0  0  0  0  0  0  0  0  0  0  0  0
    3.8240   -3.8886   26.7367 C   0  0  0  0  0  0  0  0  0  0  0  0
    4.9639   -3.8480   25.7626 C   0  0  0  0  0  0  0  0  0  0  0  0
    5.5429   -5.1259   25.2320 C   0  0  0  0  0  0  0  0  0  0  0  0
    9.9148    1.6787   22.2018 C   0  0  0  0  0  0  0  0  0  0  0  0
    6.7391    5.5568   23.8621 C   0  0  0  0  0  0  0  0  0  0  0  0
    7.3011    4.4139   23.0697 C   0  0  0  0  0  0  0  0  0  0  0  0
    6.6691    3.7807   21.8657 N   0  0  0  0  0  0  0  0  0  0  0  0
    7.5713    2.6790   21.3941 N   0  0  0  0  0  0  0  0  0  0  0  0
    8.7609    2.6313   22.3065 C   0  0  0  0  0  0  0  0  0  0  0  0
    8.5939    3.7036   23.3422 O   0  0  0  0  0  0  0  0  0  0  0  0
    7.2538   -0.4338   21.8251 C   0  0  0  0  0  0  0  0  0  0  0  0
    7.1134   -0.6035   20.3414 N   0  0  0  0  0  0  0  0  0  0  0  0
    7.7158   -1.2127   19.8564 H   0  0  0  0  0  0  0  0  0  0  0  0
    6.0551    0.1550   19.5965 C   0  0  0  0  0  0  0  0  0  0  0  0
    4.8558    0.6822   20.3269 C   0  0  0  0  0  0  0  0  0  0  0  0
    3.7976    1.4406   19.5821 C   0  0  0  0  0  0  0  0  0  0  0  0
    3.9387    1.6720   18.1067 N   0  0  0  0  0  0  0  0  0  0  0  0
    5.1381    1.1447   17.3763 C   0  0  0  0  0  0  0  0  0  0  0  0
    6.1963    0.3862   18.1212 N   0  0  0  0  0  0  0  0  0  0  0  0
 29 30  1  0  0  0
 30 31  2  0  0  0
 31 32  1  0  0  0
 32 33  2  0  0  0
 33 28  1  0  0  0
 28  1  1  0  0  0
  1  2  1  0  0  0
  3  2  1  0  0  0
  3  4  1  0  0  0
  4  5  2  0  0  0
  4  6  1  0  0  0
  6 18  1  0  0  0
 18 19  2  0  0  0
 19 20  1  0  0  0
 20 21  2  0  0  0
 21 22  1  0  0  0
 22 23  2  0  0  0
 23 24  1  0  0  0
 24 25  2  0  0  0
 25 26  1  0  0  0
 26 27  2  0  0  0
  6  7  1  0  0  0
  7  8  1  0  0  0
  8 35  1  0  0  0
 35 36  1  0  0  0
 36 38  1  0  0  0
 38 39  2  0  0  0
 39 40  1  0  0  0
 40 41  2  0  0  0
 41 42  1  0  0  0
 42 43  2  0  0  0
  3  9  1  0  0  0
  9 10  2  0  0  0
 10 11  1  0  0  0
 11 12  1  0  0  0
 11 13  2  0  0  0
 13 14  1  0  0  0
 14 15  2  0  0  0
 15 16  1  0  0  0
 16 17  2  0  0  0
 33 34  1  0  0  0
 34 30  1  0  0  0
 16  1  1  0  0  0
  8  3  1  0  0  0
 43 38  1  0  0  0
 15  9  1  0  0  0
 27 18  1  0  0  0
 27 22  1  0  0  0
 36 37  1  0  0  0
M  END
> <minimizedAffinity>
-9.56256

> <CNNscore>
0.2523863614

> <CNNaffinity>
7.1694321632

> <CNN_VS>
1.8094668388

> <CNNaffinity_variance>
0.1957476437

$$$$



 43 49  0  0  0  0  0  0  0  0999 V2000
   10.5577    0.3145   23.1062 N   0  0  0  0  0  0  0  0  0  0  0  0
    9.1630    0.0245   23.5758 C   0  0  0  0  0  0  0  0  0  0  0  0
    8.9256   -1.0309   24.6149 C   0  0  0  0  0  0  0  0  0  0  0  0
    8.5355   -2.0518   25.6422 C   0  0  0  0  0  0  0  0  0  0  0  0
    9.0436   -2.8850   26.3662 O   0  0  0  0  0  0  0  0  0  0  0  0
    7.0448   -2.0028   25.8018 N   0  0  0  0  0  0  0  0  0  0  0  0
    6.5136   -0.9516   24.8730 C   0  0  0  0  0  0  0  0  0  0  0  0
    7.6760   -0.3509   24.1395 C   0  0  0  0  0  0  0  0  0  0  0  0
   10.0831   -1.7964   25.1845 C   0  0  0  0  0  0  0  0  0  0  0  0
    9.8458   -2.8518   26.2236 C   0  0  0  0  0  0  0  0  0  0  0  0
   11.0032   -3.6172   26.7931 C   0  0  0  0  0  0  0  0  0  0  0  0
   10.7659   -4.6726   27.8323 Cl  0  0  0  0  0  0  0  0  0  0  0  0
   12.3980   -3.3271   26.3236 C   0  0  0  0  0  0  0  0  0  0  0  0
   12.6353   -2.2717   25.2845 C   0  0  0  0  0  0  0  0  0  0  0  0
   11.4779   -1.5064   24.7149 C   0  0  0  0  0  0  0  0  0  0  0  0
   11.7152   -0.4509   23.6758 C   0  0  0  0  0  0  0  0  0  0  0  0
   13.1100   -0.1609   23.2063 O   0  0  0  0  0  0  0  0  0  0  0  0
    6.2287   -2.8554   26.7276 C   0  0  0  0  0  0  0  0  0  0  0  0
    6.0925   -2.4757   28.1724 C   0  0  0  0  0  0  0  0  0  0  0  0
    5.2764   -3.3283   29.0981 N   0  0  0  0  0  0  0  0  0  0  0  0
    4.5965   -4.5605   28.5792 C   0  0  0  0  0  0  0  0  0  0  0  0
    4.7327   -4.9401   27.1344 C   0  0  0  0  0  0  0  0  0  0  0  0
    4.0527   -6.1724   26.6154 C   0  0  0  0  0  0  0  0  0  0  0  0
    4.1889   -6.5519   25.1706 C   0  0  0  0  0  0  0  0  0  0  0  0
    5.0050   -5.6994   24.2448 C   0  0  0  0  0  0  0  0  0  0  0  0
    5.6850   -4.4672   24.7638 C   0  0  0  0  0  0  0  0  0  0  0  0
    5.5488   -4.0875   26.2086 C   0  0  0  0  0  0  0  0  0  0  0  0
   10.7950    1.3700   22.0671 C   0  0  0  0  0  0  0  0  0  0  0  0
   11.8161    6.5503   22.0135 C   0  0  0  0  0  0  0  0  0  0  0  0
   11.7204    5.1196   22.4540 C   0  0  0  0  0  0  0  0  0  0  0  0
   12.1852    4.5691   23.7696 N   0  0  0  0  0  0  0  0  0  0  0  0
   11.8951    3.0975   23.7848 N   0  0  0  0  0  0  0  0  0  0  0  0
   11.2511    2.7385   22.4786 C   0  0  0  0  0  0  0  0  0  0  0  0
   11.1431    3.9882   21.6560 O   0  0  0  0  0  0  0  0  0  0  0  0
    7.6017    0.7385   23.1110 C   0  0  0  0  0  0  0  0  0  0  0  0
    7.3837    2.1597   23.5383 N   0  0  0  0  0  0  0  0  0  0  0  0
    7.5175    2.8931   22.8952 H   0  0  0  0  0  0  0  0  0  0  0  0
    6.9617    2.4636   24.9453 C   0  0  0  0  0  0  0  0  0  0  0  0
    6.3286    3.7842   25.2697 C   0  0  0  0  0  0  0  0  0  0  0  0
    5.9067    4.0881   26.6766 C   0  0  0  0  0  0  0  0  0  0  0  0
    6.1177    3.0715   27.7592 N   0  0  0  0  0  0  0  0  0  0  0  0
    6.7508    1.7509   27.4348 C   0  0  0  0  0  0  0  0  0  0  0  0
    7.1728    1.4470   26.0278 N   0  0  0  0  0  0  0  0  0  0  0  0
 29 30  1  0  0  0
 30 31  2  0  0  0
 31 32  1  0  0  0
 32 33  2  0  0  0
 33 28  1  0  0  0
 28  1  1  0  0  0
  1  2  1  0  0  0
  3  2  1  0  0  0
  3  4  1  0  0  0
  4  5  2  0  0  0
  4  6  1  0  0  0
  6 18  1  0  0  0
 18 19  2  0  0  0
 19 20  1  0  0  0
 20 21  2  0  0  0
 21 22  1  0  0  0
 22 23  2  0  0  0
 23 24  1  0  0  0
 24 25  2  0  0  0
 25 26  1  0  0  0
 26 27  2  0  0  0
  6  7  1  0  0  0
  7  8  1  0  0  0
  8 35  1  0  0  0
 35 36  1  0  0  0
 36 38  1  0  0  0
 38 39  2  0  0  0
 39 40  1  0  0  0
 40 41  2  0  0  0
 41 42  1  0  0  0
 42 43  2  0  0  0
  3  9  1  0  0  0
  9 10  2  0  0  0
 10 11  1  0  0  0
 11 12  1  0  0  0
 11 13  2  0  0  0
 13 14  1  0  0  0
 14 15  2  0  0  0
 15 16  1  0  0  0
 16 17  2  0  0  0
 33 34  1  0  0  0
 34 30  1  0  0  0
 16  1  1  0  0  0
  8  3  1  0  0  0
 43 38  1  0  0  0
 15  9  1  0  0  0
 27 18  1  0  0  0
 27 22  1  0  0  0
 36 37  1  0  0  0
M  END
> <minimizedAffinity>
-7.60464

> <CNNscore>
0.2269562930

> <CNNaffinity>
6.9245057106

> <CNN_VS>
1.5715601444

> <CNNaffinity_variance>
0.4587630332

$$$$



 43 49  0  0  0  0  0  0  0  0999 V2000
    7.7286   -2.9046   26.1809 N   0  0  0  0  0  0  0  0  0  0  0  0
    7.5032   -2.2745   24.8385 C   0  0  0  0  0  0  0  0  0  0  0  0
    6.2676   -1.4612   24.5897 C   0  0  0  0  0  0  0  0  0  0  0  0
    5.0862   -0.6254   24.1953 C   0  0  0  0  0  0  0  0  0  0  0  0
    4.0512   -0.1961   24.6652 O   0  0  0  0  0  0  0  0  0  0  0  0
    5.2724   -0.2038   22.7678 N   0  0  0  0  0  0  0  0  0  0  0  0
    6.5690   -0.7791   22.2800 C   0  0  0  0  0  0  0  0  0  0  0  0
    7.1840   -1.5562   23.4060 C   0  0  0  0  0  0  0  0  0  0  0  0
    5.2574   -1.2780   25.6834 C   0  0  0  0  0  0  0  0  0  0  0  0
    4.0218   -0.4648   25.4346 C   0  0  0  0  0  0  0  0  0  0  0  0
    3.0117   -0.2816   26.5282 C   0  0  0  0  0  0  0  0  0  0  0  0
    1.7761    0.5317   26.2795 Cl  0  0  0  0  0  0  0  0  0  0  0  0
    3.2372   -0.9118   27.8706 C   0  0  0  0  0  0  0  0  0  0  0  0
    4.4727   -1.7251   28.1194 C   0  0  0  0  0  0  0  0  0  0  0  0
    5.4828   -1.9082   27.0258 C   0  0  0  0  0  0  0  0  0  0  0  0
    6.7185   -2.7215   27.2745 C   0  0  0  0  0  0  0  0  0  0  0  0
    6.9439   -3.3517   28.6169 O   0  0  0  0  0  0  0  0  0  0  0  0
    4.3279    0.6441   21.9685 C   0  0  0  0  0  0  0  0  0  0  0  0
    3.1914    1.3472   22.6498 C   0  0  0  0  0  0  0  0  0  0  0  0
    2.2469    2.1952   21.8505 N   0  0  0  0  0  0  0  0  0  0  0  0
    2.4389    2.3400   20.3699 C   0  0  0  0  0  0  0  0  0  0  0  0
    3.5753    1.6370   19.6887 C   0  0  0  0  0  0  0  0  0  0  0  0
    3.7673    1.7819   18.2080 C   0  0  0  0  0  0  0  0  0  0  0  0
    4.9038    1.0787   17.5268 C   0  0  0  0  0  0  0  0  0  0  0  0
    5.8483    0.2308   18.3261 C   0  0  0  0  0  0  0  0  0  0  0  0
    5.6563    0.0859   19.8066 C   0  0  0  0  0  0  0  0  0  0  0  0
    4.5198    0.7890   20.4879 C   0  0  0  0  0  0  0  0  0  0  0  0
    8.9642   -3.7179   26.4296 C   0  0  0  0  0  0  0  0  0  0  0  0
   14.1963   -3.0064   26.4261 C   0  0  0  0  0  0  0  0  0  0  0  0
   12.7217   -2.7501   26.3271 C   0  0  0  0  0  0  0  0  0  0  0  0
   12.0745   -1.4322   26.0199 N   0  0  0  0  0  0  0  0  0  0  0  0
   10.5881   -1.6344   26.0209 N   0  0  0  0  0  0  0  0  0  0  0  0
   10.3167   -3.0772   26.3288 C   0  0  0  0  0  0  0  0  0  0  0  0
   11.6354   -3.7668   26.5180 O   0  0  0  0  0  0  0  0  0  0  0  0
    8.4868   -2.2980   23.3569 C   0  0  0  0  0  0  0  0  0  0  0  0
    9.4637   -2.0258   22.2517 N   0  0  0  0  0  0  0  0  0  0  0  0
    9.3898   -2.5117   21.3987 H   0  0  0  0  0  0  0  0  0  0  0  0
   10.5533   -1.0134   22.4462 C   0  0  0  0  0  0  0  0  0  0  0  0
   11.9692   -1.3576   22.0900 C   0  0  0  0  0  0  0  0  0  0  0  0
   13.0587   -0.3453   22.2845 C   0  0  0  0  0  0  0  0  0  0  0  0
   12.7325    1.0114   22.8352 N   0  0  0  0  0  0  0  0  0  0  0  0
   11.3166    1.3556   23.1914 C   0  0  0  0  0  0  0  0  0  0  0  0
   10.2271    0.3431   22.9969 N   0  0  0  0  0  0  0  0  0  0  0  0
 29 30  1  0  0  0
 30 31  2  0  0  0
 31 32  1  0  0  0
 32 33  2  0  0  0
 33 28  1  0  0  0
 28  1  1  0  0  0
  1  2  1  0  0  0
  3  2  1  0  0  0
  3  4  1  0  0  0
  4  5  2  0  0  0
  4  6  1  0  0  0
  6 18  1  0  0  0
 18 19  2  0  0  0
 19 20  1  0  0  0
 20 21  2  0  0  0
 21 22  1  0  0  0
 22 23  2  0  0  0
 23 24  1  0  0  0
 24 25  2  0  0  0
 25 26  1  0  0  0
 26 27  2  0  0  0
  6  7  1  0  0  0
  7  8  1  0  0  0
  8 35  1  0  0  0
 35 36  1  0  0  0
 36 38  1  0  0  0
 38 39  2  0  0  0
 39 40  1  0  0  0
 40 41  2  0  0  0
 41 42  1  0  0  0
 42 43  2  0  0  0
  3  9  1  0  0  0
  9 10  2  0  0  0
 10 11  1  0  0  0
 11 12  1  0  0  0
 11 13  2  0  0  0
 13 14  1  0  0  0
 14 15  2  0  0  0
 15 16  1  0  0  0
 16 17  2  0  0  0
 33 34  1  0  0  0
 34 30  1  0  0  0
 16  1  1  0  0  0
  8  3  1  0  0  0
 43 38  1  0  0  0
 15  9  1  0  0  0
 27 18  1  0  0  0
 27 22  1  0  0  0
 36 37  1  0  0  0
M  END
> <minimizedAffinity>
-8.63146

> <CNNscore>
0.1963945031

> <CNNaffinity>
6.6402130127

> <CNN_VS>
1.3041013479

> <CNNaffinity_variance>
0.4922806323

$$$$



 43 49  0  0  0  0  0  0  0  0999 V2000
    6.6486   -3.2472   24.0614 N   0  0  0  0  0  0  0  0  0  0  0  0
    6.8077   -1.8517   23.5349 C   0  0  0  0  0  0  0  0  0  0  0  0
    8.1201   -1.1402   23.6805 C   0  0  0  0  0  0  0  0  0  0  0  0
    9.3654   -0.3071   23.7529 C   0  0  0  0  0  0  0  0  0  0  0  0
   10.5068   -0.3731   24.1641 O   0  0  0  0  0  0  0  0  0  0  0  0
    9.0767    1.0153   23.1063 N   0  0  0  0  0  0  0  0  0  0  0  0
    7.6530    0.9994   22.6343 C   0  0  0  0  0  0  0  0  0  0  0  0
    7.0618   -0.3327   22.9891 C   0  0  0  0  0  0  0  0  0  0  0  0
    9.2736   -1.8243   24.3526 C   0  0  0  0  0  0  0  0  0  0  0  0
   10.5861   -1.1128   24.4981 C   0  0  0  0  0  0  0  0  0  0  0  0
   11.7395   -1.7968   25.1702 C   0  0  0  0  0  0  0  0  0  0  0  0
   13.0520   -1.0853   25.3158 Cl  0  0  0  0  0  0  0  0  0  0  0  0
   11.5804   -3.1924   25.6967 C   0  0  0  0  0  0  0  0  0  0  0  0
   10.2680   -3.9038   25.5511 C   0  0  0  0  0  0  0  0  0  0  0  0
    9.1146   -3.2198   24.8791 C   0  0  0  0  0  0  0  0  0  0  0  0
    7.8020   -3.9313   24.7335 C   0  0  0  0  0  0  0  0  0  0  0  0
    7.6430   -5.3268   25.2600 O   0  0  0  0  0  0  0  0  0  0  0  0
   10.0422    2.1535   22.9579 C   0  0  0  0  0  0  0  0  0  0  0  0
   11.4913    1.8773   22.6860 C   0  0  0  0  0  0  0  0  0  0  0  0
   12.4568    3.0156   22.5375 N   0  0  0  0  0  0  0  0  0  0  0  0
   11.9732    4.4301   22.6610 C   0  0  0  0  0  0  0  0  0  0  0  0
   10.5242    4.7064   22.9329 C   0  0  0  0  0  0  0  0  0  0  0  0
   10.0406    6.1210   23.0563 C   0  0  0  0  0  0  0  0  0  0  0  0
    8.5915    6.3971   23.3282 C   0  0  0  0  0  0  0  0  0  0  0  0
    7.6260    5.2588   23.4766 C   0  0  0  0  0  0  0  0  0  0  0  0
    8.1096    3.8443   23.3532 C   0  0  0  0  0  0  0  0  0  0  0  0
    9.5587    3.5681   23.0813 C   0  0  0  0  0  0  0  0  0  0  0  0
    5.3361   -3.9587   23.9158 C   0  0  0  0  0  0  0  0  0  0  0  0
    4.1814   -7.7360   27.4200 C   0  0  0  0  0  0  0  0  0  0  0  0
    4.6065   -7.0393   26.1615 C   0  0  0  0  0  0  0  0  0  0  0  0
    5.0561   -7.7043   24.8944 N   0  0  0  0  0  0  0  0  0  0  0  0
    5.3841   -6.6313   23.8989 N   0  0  0  0  0  0  0  0  0  0  0  0
    5.1373   -5.3031   24.5508 C   0  0  0  0  0  0  0  0  0  0  0  0
    4.6567   -5.5552   25.9493 O   0  0  0  0  0  0  0  0  0  0  0  0
    5.6587   -0.7790   22.7029 C   0  0  0  0  0  0  0  0  0  0  0  0
    4.7451    0.0921   21.8927 N   0  0  0  0  0  0  0  0  0  0  0  0
    4.0491    0.6257   22.3400 H   0  0  0  0  0  0  0  0  0  0  0  0
    4.8918    0.1501   20.4010 C   0  0  0  0  0  0  0  0  0  0  0  0
    4.2040    1.2313   19.6212 C   0  0  0  0  0  0  0  0  0  0  0  0
    4.3507    1.2893   18.1297 C   0  0  0  0  0  0  0  0  0  0  0  0
    5.1853    0.2663   17.4176 N   0  0  0  0  0  0  0  0  0  0  0  0
    5.8731   -0.8149   18.1974 C   0  0  0  0  0  0  0  0  0  0  0  0
    5.7264   -0.8729   19.6891 N   0  0  0  0  0  0  0  0  0  0  0  0
 29 30  1  0  0  0
 30 31  2  0  0  0
 31 32  1  0  0  0
 32 33  2  0  0  0
 33 28  1  0  0  0
 28  1  1  0  0  0
  1  2  1  0  0  0
  3  2  1  0  0  0
  3  4  1  0  0  0
  4  5  2  0  0  0
  4  6  1  0  0  0
  6 18  1  0  0  0
 18 19  2  0  0  0
 19 20  1  0  0  0
 20 21  2  0  0  0
 21 22  1  0  0  0
 22 23  2  0  0  0
 23 24  1  0  0  0
 24 25  2  0  0  0
 25 26  1  0  0  0
 26 27  2  0  0  0
  6  7  1  0  0  0
  7  8  1  0  0  0
  8 35  1  0  0  0
 35 36  1  0  0  0
 36 38  1  0  0  0
 38 39  2  0  0  0
 39 40  1  0  0  0
 40 41  2  0  0  0
 41 42  1  0  0  0
 42 43  2  0  0  0
  3  9  1  0  0  0
  9 10  2  0  0  0
 10 11  1  0  0  0
 11 12  1  0  0  0
 11 13  2  0  0  0
 13 14  1  0  0  0
 14 15  2  0  0  0
 15 16  1  0  0  0
 16 17  2  0  0  0
 33 34  1  0  0  0
 34 30  1  0  0  0
 16  1  1  0  0  0
  8  3  1  0  0  0
 43 38  1  0  0  0
 15  9  1  0  0  0
 27 18  1  0  0  0
 27 22  1  0  0  0
 36 37  1  0  0  0
M  END
> <minimizedAffinity>
-8.91911

> <CNNscore>
0.1928318739

> <CNNaffinity>
7.1043052673

> <CNN_VS>
1.3699364662

> <CNNaffinity_variance>
0.2177149355

$$$$



 43 49  0  0  0  0  0  0  0  0999 V2000
    3.6346    2.2728   24.8531 N   0  0  0  0  0  0  0  0  0  0  0  0
    4.9012    1.6715   24.3200 C   0  0  0  0  0  0  0  0  0  0  0  0
    5.5995    0.5894   25.0891 C   0  0  0  0  0  0  0  0  0  0  0  0
    6.4046   -0.4940   25.7432 C   0  0  0  0  0  0  0  0  0  0  0  0
    6.3937   -1.1892   26.7396 O   0  0  0  0  0  0  0  0  0  0  0  0
    7.5861   -0.7870   24.8666 N   0  0  0  0  0  0  0  0  0  0  0  0
    7.5111    0.1153   23.6707 C   0  0  0  0  0  0  0  0  0  0  0  0
    6.2833    0.9660   23.8082 C   0  0  0  0  0  0  0  0  0  0  0  0
    5.0311    0.1086   26.3913 C   0  0  0  0  0  0  0  0  0  0  0  0
    5.7294   -0.9735   27.1604 C   0  0  0  0  0  0  0  0  0  0  0  0
    5.1610   -1.4543   28.4626 C   0  0  0  0  0  0  0  0  0  0  0  0
    5.8593   -2.5364   29.2318 Cl  0  0  0  0  0  0  0  0  0  0  0  0
    3.8944   -0.8530   28.9958 C   0  0  0  0  0  0  0  0  0  0  0  0
    3.1962    0.2291   28.2267 C   0  0  0  0  0  0  0  0  0  0  0  0
    3.7645    0.7099   26.9245 C   0  0  0  0  0  0  0  0  0  0  0  0
    3.0663    1.7920   26.1553 C   0  0  0  0  0  0  0  0  0  0  0  0
    1.7997    2.3933   26.6884 O   0  0  0  0  0  0  0  0  0  0  0  0
    8.6548   -1.8039   25.1382 C   0  0  0  0  0  0  0  0  0  0  0  0
    8.2892   -3.1423   25.7083 C   0  0  0  0  0  0  0  0  0  0  0  0
    9.3579   -4.1591   25.9799 N   0  0  0  0  0  0  0  0  0  0  0  0
   10.7923   -3.8375   25.6815 C   0  0  0  0  0  0  0  0  0  0  0  0
   11.1580   -2.4991   25.1115 C   0  0  0  0  0  0  0  0  0  0  0  0
   12.5924   -2.1775   24.8131 C   0  0  0  0  0  0  0  0  0  0  0  0
   12.9580   -0.8390   24.2431 C   0  0  0  0  0  0  0  0  0  0  0  0
   11.8892    0.1778   23.9715 C   0  0  0  0  0  0  0  0  0  0  0  0
   10.4548   -0.1438   24.2698 C   0  0  0  0  0  0  0  0  0  0  0  0
   10.0892   -1.4823   24.8399 C   0  0  0  0  0  0  0  0  0  0  0  0
    2.9364    3.3549   24.0840 C   0  0  0  0  0  0  0  0  0  0  0  0
   -0.1639    3.7556   19.8286 C   0  0  0  0  0  0  0  0  0  0  0  0
    0.7511    3.2010   20.8798 C   0  0  0  0  0  0  0  0  0  0  0  0
    1.2617    1.7924   20.9504 N   0  0  0  0  0  0  0  0  0  0  0  0
    2.1424    1.6786   22.1593 N   0  0  0  0  0  0  0  0  0  0  0  0
    2.1762    3.0169   22.8358 C   0  0  0  0  0  0  0  0  0  0  0  0
    1.3163    3.9579   22.0451 O   0  0  0  0  0  0  0  0  0  0  0  0
    5.8206    2.0100   22.8356 C   0  0  0  0  0  0  0  0  0  0  0  0
    6.5644    2.2197   21.5501 N   0  0  0  0  0  0  0  0  0  0  0  0
    7.2881    2.8856   21.5032 H   0  0  0  0  0  0  0  0  0  0  0  0
    6.2058    1.4150   20.3361 C   0  0  0  0  0  0  0  0  0  0  0  0
    4.9225    1.6866   19.6085 C   0  0  0  0  0  0  0  0  0  0  0  0
    4.5639    0.8820   18.3945 C   0  0  0  0  0  0  0  0  0  0  0  0
    5.4885   -0.1944   17.9080 N   0  0  0  0  0  0  0  0  0  0  0  0
    6.7718   -0.4659   18.6356 C   0  0  0  0  0  0  0  0  0  0  0  0
    7.1304    0.3388   19.8496 N   0  0  0  0  0  0  0  0  0  0  0  0
 29 30  1  0  0  0
 30 31  2  0  0  0
 31 32  1  0  0  0
 32 33  2  0  0  0
 33 28  1  0  0  0
 28  1  1  0  0  0
  1  2  1  0  0  0
  3  2  1  0  0  0
  3  4  1  0  0  0
  4  5  2  0  0  0
  4  6  1  0  0  0
  6 18  1  0  0  0
 18 19  2  0  0  0
 19 20  1  0  0  0
 20 21  2  0  0  0
 21 22  1  0  0  0
 22 23  2  0  0  0
 23 24  1  0  0  0
 24 25  2  0  0  0
 25 26  1  0  0  0
 26 27  2  0  0  0
  6  7  1  0  0  0
  7  8  1  0  0  0
  8 35  1  0  0  0
 35 36  1  0  0  0
 36 38  1  0  0  0
 38 39  2  0  0  0
 39 40  1  0  0  0
 40 41  2  0  0  0
 41 42  1  0  0  0
 42 43  2  0  0  0
  3  9  1  0  0  0
  9 10  2  0  0  0
 10 11  1  0  0  0
 11 12  1  0  0  0
 11 13  2  0  0  0
 13 14  1  0  0  0
 14 15  2  0  0  0
 15 16  1  0  0  0
 16 17  2  0  0  0
 33 34  1  0  0  0
 34 30  1  0  0  0
 16  1  1  0  0  0
  8  3  1  0  0  0
 43 38  1  0  0  0
 15  9  1  0  0  0
 27 18  1  0  0  0
 27 22  1  0  0  0
 36 37  1  0  0  0
M  END
> <minimizedAffinity>
-7.49030

> <CNNscore>
0.1194206774

> <CNNaffinity>
6.6820268631

> <CNN_VS>
0.7979722023

> <CNNaffinity_variance>
0.0681337342

$$$$



 43 49  0  0  0  0  0  0  0  0999 V2000
   10.0769    0.2515   22.8057 N   0  0  0  0  0  0  0  0  0  0  0  0
    8.9205   -0.6875   22.6302 C   0  0  0  0  0  0  0  0  0  0  0  0
    8.8434   -1.9433   23.4470 C   0  0  0  0  0  0  0  0  0  0  0  0
    8.6319   -3.2297   24.1888 C   0  0  0  0  0  0  0  0  0  0  0  0
    9.1648   -3.9103   25.0426 O   0  0  0  0  0  0  0  0  0  0  0  0
    7.3532   -3.8423   23.6992 N   0  0  0  0  0  0  0  0  0  0  0  0
    6.7744   -2.9344   22.6547 C   0  0  0  0  0  0  0  0  0  0  0  0
    7.6955   -1.7607   22.4989 C   0  0  0  0  0  0  0  0  0  0  0  0
    9.9229   -2.2600   24.4392 C   0  0  0  0  0  0  0  0  0  0  0  0
    9.8458   -3.5158   25.2560 C   0  0  0  0  0  0  0  0  0  0  0  0
   10.9253   -3.8325   26.2482 C   0  0  0  0  0  0  0  0  0  0  0  0
   10.8483   -5.0883   27.0650 Cl  0  0  0  0  0  0  0  0  0  0  0  0
   12.0817   -2.8934   26.4236 C   0  0  0  0  0  0  0  0  0  0  0  0
   12.1588   -1.6377   25.6069 C   0  0  0  0  0  0  0  0  0  0  0  0
   11.0794   -1.3210   24.6147 C   0  0  0  0  0  0  0  0  0  0  0  0
   11.1564   -0.0652   23.7979 C   0  0  0  0  0  0  0  0  0  0  0  0
   12.3128    0.8739   23.9734 O   0  0  0  0  0  0  0  0  0  0  0  0
    6.7578   -5.1356   24.1711 C   0  0  0  0  0  0  0  0  0  0  0  0
    7.3003   -6.4396   23.6658 C   0  0  0  0  0  0  0  0  0  0  0  0
    6.7049   -7.7330   24.1378 N   0  0  0  0  0  0  0  0  0  0  0  0
    5.5670   -7.7223   25.1150 C   0  0  0  0  0  0  0  0  0  0  0  0
    5.0245   -6.4183   25.6203 C   0  0  0  0  0  0  0  0  0  0  0  0
    3.8865   -6.4077   26.5976 C   0  0  0  0  0  0  0  0  0  0  0  0
    3.3441   -5.1036   27.1029 C   0  0  0  0  0  0  0  0  0  0  0  0
    3.9395   -3.8103   26.6309 C   0  0  0  0  0  0  0  0  0  0  0  0
    5.0774   -3.8210   25.6537 C   0  0  0  0  0  0  0  0  0  0  0  0
    5.6199   -5.1250   25.1484 C   0  0  0  0  0  0  0  0  0  0  0  0
   10.1539    1.5074   21.9889 C   0  0  0  0  0  0  0  0  0  0  0  0
    9.4780    6.5265   23.4831 C   0  0  0  0  0  0  0  0  0  0  0  0
    9.2184    5.0796   23.1847 C   0  0  0  0  0  0  0  0  0  0  0  0
    7.9169    4.3593   23.3773 N   0  0  0  0  0  0  0  0  0  0  0  0
    8.1089    2.9335   22.9528 N   0  0  0  0  0  0  0  0  0  0  0  0
    9.5291    2.7725   22.4978 C   0  0  0  0  0  0  0  0  0  0  0  0
   10.2149    4.0989   22.6411 O   0  0  0  0  0  0  0  0  0  0  0  0
    7.5024   -0.6071   21.5598 C   0  0  0  0  0  0  0  0  0  0  0  0
    6.8532   -0.8266   20.2256 N   0  0  0  0  0  0  0  0  0  0  0  0
    7.1572   -1.5614   19.6452 H   0  0  0  0  0  0  0  0  0  0  0  0
    5.7407    0.0733   19.7757 C   0  0  0  0  0  0  0  0  0  0  0  0
    5.5540    0.3627   18.3157 C   0  0  0  0  0  0  0  0  0  0  0  0
    4.4416    1.2627   17.8658 C   0  0  0  0  0  0  0  0  0  0  0  0
    3.5157    1.8733   18.8757 N   0  0  0  0  0  0  0  0  0  0  0  0
    3.7024    1.5839   20.3357 C   0  0  0  0  0  0  0  0  0  0  0  0
    4.8148    0.6839   20.7856 N   0  0  0  0  0  0  0  0  0  0  0  0
 29 30  1  0  0  0
 30 31  2  0  0  0
 31 32  1  0  0  0
 32 33  2  0  0  0
 33 28  1  0  0  0
 28  1  1  0  0  0
  1  2  1  0  0  0
  3  2  1  0  0  0
  3  4  1  0  0  0
  4  5  2  0  0  0
  4  6  1  0  0  0
  6 18  1  0  0  0
 18 19  2  0  0  0
 19 20  1  0  0  0
 20 21  2  0  0  0
 21 22  1  0  0  0
 22 23  2  0  0  0
 23 24  1  0  0  0
 24 25  2  0  0  0
 25 26  1  0  0  0
 26 27  2  0  0  0
  6  7  1  0  0  0
  7  8  1  0  0  0
  8 35  1  0  0  0
 35 36  1  0  0  0
 36 38  1  0  0  0
 38 39  2  0  0  0
 39 40  1  0  0  0
 40 41  2  0  0  0
 41 42  1  0  0  0
 42 43  2  0  0  0
  3  9  1  0  0  0
  9 10  2  0  0  0
 10 11  1  0  0  0
 11 12  1  0  0  0
 11 13  2  0  0  0
 13 14  1  0  0  0
 14 15  2  0  0  0
 15 16  1  0  0  0
 16 17  2  0  0  0
 33 34  1  0  0  0
 34 30  1  0  0  0
 16  1  1  0  0  0
  8  3  1  0  0  0
 43 38  1  0  0  0
 15  9  1  0  0  0
 27 18  1  0  0  0
 27 22  1  0  0  0
 36 37  1  0  0  0
M  END
> <minimizedAffinity>
-9.07802

> <CNNscore>
0.1124468893

> <CNNaffinity>
6.9168424606

> <CNN_VS>
0.7777774334

> <CNNaffinity_variance>
0.2067697048

$$$$



 43 49  0  0  0  0  0  0  0  0999 V2000
    7.4622   -2.2734   24.9958 N   0  0  0  0  0  0  0  0  0  0  0  0
    7.3018   -1.2698   23.8926 C   0  0  0  0  0  0  0  0  0  0  0  0
    6.4738   -0.0387   24.1133 C   0  0  0  0  0  0  0  0  0  0  0  0
    5.6809    1.2326   24.1864 C   0  0  0  0  0  0  0  0  0  0  0  0
    4.9923    1.8564   24.9693 O   0  0  0  0  0  0  0  0  0  0  0  0
    5.7951    1.9269   22.8616 N   0  0  0  0  0  0  0  0  0  0  0  0
    6.6585    1.0847   21.9698 C   0  0  0  0  0  0  0  0  0  0  0  0
    7.0780   -0.1300   22.7434 C   0  0  0  0  0  0  0  0  0  0  0  0
    5.8063    0.1889   25.4373 C   0  0  0  0  0  0  0  0  0  0  0  0
    4.9783    1.4200   25.6580 C   0  0  0  0  0  0  0  0  0  0  0  0
    4.3108    1.6475   26.9818 C   0  0  0  0  0  0  0  0  0  0  0  0
    3.4828    2.8786   27.2026 Cl  0  0  0  0  0  0  0  0  0  0  0  0
    4.4713    0.6438   28.0850 C   0  0  0  0  0  0  0  0  0  0  0  0
    5.2993   -0.5873   27.8643 C   0  0  0  0  0  0  0  0  0  0  0  0
    5.9667   -0.8148   26.5404 C   0  0  0  0  0  0  0  0  0  0  0  0
    6.7948   -2.0459   26.3196 C   0  0  0  0  0  0  0  0  0  0  0  0
    6.9553   -3.0496   27.4228 O   0  0  0  0  0  0  0  0  0  0  0  0
    5.1578    3.2338   22.4934 C   0  0  0  0  0  0  0  0  0  0  0  0
    5.8076    4.5247   22.8951 C   0  0  0  0  0  0  0  0  0  0  0  0
    5.1702    5.8317   22.5269 N   0  0  0  0  0  0  0  0  0  0  0  0
    3.8830    5.8478   21.7569 C   0  0  0  0  0  0  0  0  0  0  0  0
    3.2332    4.5569   21.3551 C   0  0  0  0  0  0  0  0  0  0  0  0
    1.9460    4.5730   20.5851 C   0  0  0  0  0  0  0  0  0  0  0  0
    1.2963    3.2820   20.1834 C   0  0  0  0  0  0  0  0  0  0  0  0
    1.9336    1.9751   20.5516 C   0  0  0  0  0  0  0  0  0  0  0  0
    3.2208    1.9590   21.3216 C   0  0  0  0  0  0  0  0  0  0  0  0
    3.8706    3.2499   21.7234 C   0  0  0  0  0  0  0  0  0  0  0  0
    8.2903   -3.5046   24.7750 C   0  0  0  0  0  0  0  0  0  0  0  0
   13.2189   -2.1359   26.0850 C   0  0  0  0  0  0  0  0  0  0  0  0
   11.9640   -2.9342   25.8904 C   0  0  0  0  0  0  0  0  0  0  0  0
   11.7672   -4.3731   26.2658 N   0  0  0  0  0  0  0  0  0  0  0  0
   10.3671   -4.7618   25.8936 N   0  0  0  0  0  0  0  0  0  0  0  0
    9.6985   -3.5633   25.2883 C   0  0  0  0  0  0  0  0  0  0  0  0
   10.6855   -2.4336   25.2863 O   0  0  0  0  0  0  0  0  0  0  0  0
    7.9487   -1.2411   22.2362 C   0  0  0  0  0  0  0  0  0  0  0  0
    9.1548   -0.9274   21.4014 N   0  0  0  0  0  0  0  0  0  0  0  0
    9.0888   -0.9343   20.4191 H   0  0  0  0  0  0  0  0  0  0  0  0
   10.4613   -0.6030   22.0631 C   0  0  0  0  0  0  0  0  0  0  0  0
   10.5787    0.6110   22.9363 C   0  0  0  0  0  0  0  0  0  0  0  0
   11.8852    0.9353   23.5979 C   0  0  0  0  0  0  0  0  0  0  0  0
   13.0743    0.0456   23.3865 N   0  0  0  0  0  0  0  0  0  0  0  0
   12.9568   -1.1683   22.5133 C   0  0  0  0  0  0  0  0  0  0  0  0
   11.6503   -1.4927   21.8516 N   0  0  0  0  0  0  0  0  0  0  0  0
 29 30  1  0  0  0
 30 31  2  0  0  0
 31 32  1  0  0  0
 32 33  2  0  0  0
 33 28  1  0  0  0
 28  1  1  0  0  0
  1  2  1  0  0  0
  3  2  1  0  0  0
  3  4  1  0  0  0
  4  5  2  0  0  0
  4  6  1  0  0  0
  6 18  1  0  0  0
 18 19  2  0  0  0
 19 20  1  0  0  0
 20 21  2  0  0  0
 21 22  1  0  0  0
 22 23  2  0  0  0
 23 24  1  0  0  0
 24 25  2  0  0  0
 25 26  1  0  0  0
 26 27  2  0  0  0
  6  7  1  0  0  0
  7  8  1  0  0  0
  8 35  1  0  0  0
 35 36  1  0  0  0
 36 38  1  0  0  0
 38 39  2  0  0  0
 39 40  1  0  0  0
 40 41  2  0  0  0
 41 42  1  0  0  0
 42 43  2  0  0  0
  3  9  1  0  0  0
  9 10  2  0  0  0
 10 11  1  0  0  0
 11 12  1  0  0  0
 11 13  2  0  0  0
 13 14  1  0  0  0
 14 15  2  0  0  0
 15 16  1  0  0  0
 16 17  2  0  0  0
 33 34  1  0  0  0
 34 30  1  0  0  0
 16  1  1  0  0  0
  8  3  1  0  0  0
 43 38  1  0  0  0
 15  9  1  0  0  0
 27 18  1  0  0  0
 27 22  1  0  0  0
 36 37  1  0  0  0
M  END
> <minimizedAffinity>
-7.75954

> <CNNscore>
0.1108122319

> <CNNaffinity>
6.6137113571

> <CNN_VS>
0.7328801155

> <CNNaffinity_variance>
0.3566899896

$$$$



 43 49  0  0  0  0  0  0  0  0999 V2000
   10.5216    0.7223   23.0518 N   0  0  0  0  0  0  0  0  0  0  0  0
    9.1302    0.1698   23.1450 C   0  0  0  0  0  0  0  0  0  0  0  0
    8.8426   -0.9887   24.0534 C   0  0  0  0  0  0  0  0  0  0  0  0
    8.4059   -2.1375   24.9132 C   0  0  0  0  0  0  0  0  0  0  0  0
    8.8652   -2.9295   25.7121 O   0  0  0  0  0  0  0  0  0  0  0  0
    6.9370   -2.3483   24.6943 N   0  0  0  0  0  0  0  0  0  0  0  0
    6.4658   -1.3296   23.6992 C   0  0  0  0  0  0  0  0  0  0  0  0
    7.6435   -0.4893   23.3031 C   0  0  0  0  0  0  0  0  0  0  0  0
    9.9463   -1.5946   24.8686 C   0  0  0  0  0  0  0  0  0  0  0  0
    9.6587   -2.7531   25.7770 C   0  0  0  0  0  0  0  0  0  0  0  0
   10.7624   -3.3590   26.5922 C   0  0  0  0  0  0  0  0  0  0  0  0
   10.4748   -4.5175   27.5006 Cl  0  0  0  0  0  0  0  0  0  0  0  0
   12.1538   -2.8064   26.4990 C   0  0  0  0  0  0  0  0  0  0  0  0
   12.4415   -1.6480   25.5906 C   0  0  0  0  0  0  0  0  0  0  0  0
   11.3377   -1.0421   24.7754 C   0  0  0  0  0  0  0  0  0  0  0  0
   11.6254    0.1164   23.8670 C   0  0  0  0  0  0  0  0  0  0  0  0
   13.0168    0.6689   23.7738 O   0  0  0  0  0  0  0  0  0  0  0  0
    6.0883   -3.3940   25.3547 C   0  0  0  0  0  0  0  0  0  0  0  0
    5.1330   -3.0065   26.4443 C   0  0  0  0  0  0  0  0  0  0  0  0
    4.2843   -4.0523   27.1046 N   0  0  0  0  0  0  0  0  0  0  0  0
    4.3909   -5.4856   26.6754 C   0  0  0  0  0  0  0  0  0  0  0  0
    5.3462   -5.8731   25.5857 C   0  0  0  0  0  0  0  0  0  0  0  0
    5.4528   -7.3065   25.1565 C   0  0  0  0  0  0  0  0  0  0  0  0
    6.4081   -7.6939   24.0668 C   0  0  0  0  0  0  0  0  0  0  0  0
    7.2568   -6.6481   23.4065 C   0  0  0  0  0  0  0  0  0  0  0  0
    7.1502   -5.2148   23.8358 C   0  0  0  0  0  0  0  0  0  0  0  0
    6.1949   -4.8273   24.9254 C   0  0  0  0  0  0  0  0  0  0  0  0
   10.8093    1.8808   22.1433 C   0  0  0  0  0  0  0  0  0  0  0  0
   10.8914    7.0739   23.0953 C   0  0  0  0  0  0  0  0  0  0  0  0
   10.4269    5.6527   22.9755 C   0  0  0  0  0  0  0  0  0  0  0  0
    9.0584    5.1408   23.3149 N   0  0  0  0  0  0  0  0  0  0  0  0
    9.0351    3.6655   23.0445 N   0  0  0  0  0  0  0  0  0  0  0  0
   10.3892    3.2656   22.5379 C   0  0  0  0  0  0  0  0  0  0  0  0
   11.2494    4.4938   22.4953 O   0  0  0  0  0  0  0  0  0  0  0  0
    7.6253    0.6502   22.3278 C   0  0  0  0  0  0  0  0  0  0  0  0
    7.6655    0.3765   20.8536 N   0  0  0  0  0  0  0  0  0  0  0  0
    8.4640   -0.0353   20.4510 H   0  0  0  0  0  0  0  0  0  0  0  0
    6.4892    0.7302   19.9927 C   0  0  0  0  0  0  0  0  0  0  0  0
    5.3311    1.4831   20.5776 C   0  0  0  0  0  0  0  0  0  0  0  0
    4.1548    1.8367   19.7168 C   0  0  0  0  0  0  0  0  0  0  0  0
    4.1365    1.4376   18.2710 N   0  0  0  0  0  0  0  0  0  0  0  0
    5.2945    0.6847   17.6861 C   0  0  0  0  0  0  0  0  0  0  0  0
    6.4709    0.3310   18.5470 N   0  0  0  0  0  0  0  0  0  0  0  0
 29 30  1  0  0  0
 30 31  2  0  0  0
 31 32  1  0  0  0
 32 33  2  0  0  0
 33 28  1  0  0  0
 28  1  1  0  0  0
  1  2  1  0  0  0
  3  2  1  0  0  0
  3  4  1  0  0  0
  4  5  2  0  0  0
  4  6  1  0  0  0
  6 18  1  0  0  0
 18 19  2  0  0  0
 19 20  1  0  0  0
 20 21  2  0  0  0
 21 22  1  0  0  0
 22 23  2  0  0  0
 23 24  1  0  0  0
 24 25  2  0  0  0
 25 26  1  0  0  0
 26 27  2  0  0  0
  6  7  1  0  0  0
  7  8  1  0  0  0
  8 35  1  0  0  0
 35 36  1  0  0  0
 36 38  1  0  0  0
 38 39  2  0  0  0
 39 40  1  0  0  0
 40 41  2  0  0  0
 41 42  1  0  0  0
 42 43  2  0  0  0
  3  9  1  0  0  0
  9 10  2  0  0  0
 10 11  1  0  0  0
 11 12  1  0  0  0
 11 13  2  0  0  0
 13 14  1  0  0  0
 14 15  2  0  0  0
 15 16  1  0  0  0
 16 17  2  0  0  0
 33 34  1  0  0  0
 34 30  1  0  0  0
 16  1  1  0  0  0
  8  3  1  0  0  0
 43 38  1  0  0  0
 15  9  1  0  0  0
 27 18  1  0  0  0
 27 22  1  0  0  0
 36 37  1  0  0  0
M  END
> <minimizedAffinity>
-9.30580

> <CNNscore>
0.1084022745

> <CNNaffinity>
6.9508376122

> <CNN_VS>
0.7534866333

> <CNNaffinity_variance>
0.2435205281

$$$$
