


 34 38  0  0  0  0  0  0  0  0999 V2000
   10.4317    0.5270   23.6731 N   0  0  0  0  0  0  0  0  0  0  0  0
    9.0192    0.1228   23.9755 C   0  0  0  0  0  0  0  0  0  0  0  0
    8.7500   -1.0686   24.8463 C   0  0  0  0  0  0  0  0  0  0  0  0
    8.3281   -2.2303   25.6962 C   0  0  0  0  0  0  0  0  0  0  0  0
    8.8157   -3.1305   26.3505 O   0  0  0  0  0  0  0  0  0  0  0  0
    6.8287   -2.2617   25.7270 N   0  0  0  0  0  0  0  0  0  0  0  0
    6.3240   -1.1194   24.8962 C   0  0  0  0  0  0  0  0  0  0  0  0
    7.5114   -0.3820   24.3518 C   0  0  0  0  0  0  0  0  0  0  0  0
    7.4678    0.8293   23.4682 C   0  0  0  0  0  0  0  0  0  0  0  0
    9.8934   -1.8558   25.4146 C   0  0  0  0  0  0  0  0  0  0  0  0
    9.6243   -3.0471   26.2854 C   0  0  0  0  0  0  0  0  0  0  0  0
   10.7676   -3.8343   26.8537 C   0  0  0  0  0  0  0  0  0  0  0  0
   10.4985   -5.0257   27.7245 F   0  0  0  0  0  0  0  0  0  0  0  0
   12.1802   -3.4301   26.5513 C   0  0  0  0  0  0  0  0  0  0  0  0
   12.4493   -2.2388   25.6806 C   0  0  0  0  0  0  0  0  0  0  0  0
   11.3059   -1.4516   25.1123 C   0  0  0  0  0  0  0  0  0  0  0  0
   11.5750   -0.2602   24.2415 C   0  0  0  0  0  0  0  0  0  0  0  0
   12.9876    0.1440   23.9391 O   0  0  0  0  0  0  0  0  0  0  0  0
    5.9827   -3.2602   26.4601 C   0  0  0  0  0  0  0  0  0  0  0  0
    5.5611   -4.5289   25.7800 C   0  0  0  0  0  0  0  0  0  0  0  0
    4.7150   -5.5274   26.5130 N   0  0  0  0  0  0  0  0  0  0  0  0
    4.2906   -5.2570   27.9261 C   0  0  0  0  0  0  0  0  0  0  0  0
    4.7123   -3.9883   28.6061 C   0  0  0  0  0  0  0  0  0  0  0  0
    4.2878   -3.7179   30.0193 C   0  0  0  0  0  0  0  0  0  0  0  0
    4.7095   -2.4491   30.6992 C   0  0  0  0  0  0  0  0  0  0  0  0
    5.5556   -1.4507   29.9662 C   0  0  0  0  0  0  0  0  0  0  0  0
    5.9799   -1.7210   28.5532 C   0  0  0  0  0  0  0  0  0  0  0  0
    5.5583   -2.9898   27.8731 C   0  0  0  0  0  0  0  0  0  0  0  0
   10.7008    1.7184   22.8024 C   0  0  0  0  0  0  0  0  0  0  0  0
   11.9616    2.5105   22.9839 C   0  0  0  0  0  0  0  0  0  0  0  0
   11.3371    5.0304   22.8820 C   0  0  0  0  0  0  0  0  0  0  0  0
   11.9109    3.8634   23.6297 N   0  0  0  0  0  0  0  0  0  0  0  0
   12.2665    3.9899   24.5773 H   0  0  0  0  0  0  0  0  0  0  0  0
   12.3010    3.0699   24.1381 H   0  0  0  0  0  0  0  0  0  0  0  0
 31 32  1  0  0  0
 32 30  1  0  0  0
 30 29  1  0  0  0
 29  1  1  0  0  0
  1  2  1  0  0  0
  3  2  1  0  0  0
  3  4  1  0  0  0
  4  5  2  0  0  0
  4  6  1  0  0  0
  6 19  1  0  0  0
 19 20  2  0  0  0
 20 21  1  0  0  0
 21 22  2  0  0  0
 22 23  1  0  0  0
 23 24  2  0  0  0
 24 25  1  0  0  0
 25 26  2  0  0  0
 26 27  1  0  0  0
 27 28  2  0  0  0
  6  7  1  0  0  0
  7  8  1  0  0  0
  8  9  1  0  0  0
  3 10  1  0  0  0
 10 11  2  0  0  0
 11 12  1  0  0  0
 12 13  1  0  0  0
 12 14  2  0  0  0
 14 15  1  0  0  0
 15 16  2  0  0  0
 16 17  1  0  0  0
 17 18  2  0  0  0
 17  1  1  0  0  0
  8  3  1  0  0  0
 16 10  1  0  0  0
 28 19  1  0  0  0
 28 23  1  0  0  0
 32 33  1  0  0  0
 32 34  1  0  0  0
M  CHG 1  32   1
M  END
> <minimizedAffinity>
-7.87170

> <CNNscore>
0.6106644273

> <CNNaffinity>
6.5069403648

> <CNN_VS>
3.9735569954

> <CNNaffinity_variance>
0.1848919541

$$$$



 34 38  0  0  0  0  0  0  0  0999 V2000
   10.5789    0.6684   23.7355 N   0  0  0  0  0  0  0  0  0  0  0  0
    9.1856    0.3327   24.1784 C   0  0  0  0  0  0  0  0  0  0  0  0
    8.9421   -0.8704   25.0405 C   0  0  0  0  0  0  0  0  0  0  0  0
    8.5463   -2.0348   25.8993 C   0  0  0  0  0  0  0  0  0  0  0  0
    9.0478   -2.9819   26.4720 O   0  0  0  0  0  0  0  0  0  0  0  0
    7.0596   -1.9847   26.0919 N   0  0  0  0  0  0  0  0  0  0  0  0
    6.5364   -0.7892   25.3522 C   0  0  0  0  0  0  0  0  0  0  0  0
    7.6999   -0.1006   24.7024 C   0  0  0  0  0  0  0  0  0  0  0  0
    7.6328    1.1401   23.8620 C   0  0  0  0  0  0  0  0  0  0  0  0
   10.0918   -1.7379   25.4597 C   0  0  0  0  0  0  0  0  0  0  0  0
    9.8482   -2.9410   26.3218 C   0  0  0  0  0  0  0  0  0  0  0  0
   10.9979   -3.8084   26.7409 C   0  0  0  0  0  0  0  0  0  0  0  0
   10.7544   -5.0116   27.6030 F   0  0  0  0  0  0  0  0  0  0  0  0
   12.3912   -3.4727   26.2980 C   0  0  0  0  0  0  0  0  0  0  0  0
   12.6347   -2.2696   25.4360 C   0  0  0  0  0  0  0  0  0  0  0  0
   11.4850   -1.4022   25.0168 C   0  0  0  0  0  0  0  0  0  0  0  0
   11.7286   -0.1990   24.1547 C   0  0  0  0  0  0  0  0  0  0  0  0
   13.1218    0.1367   23.7118 O   0  0  0  0  0  0  0  0  0  0  0  0
    6.2400   -2.9589   26.8850 C   0  0  0  0  0  0  0  0  0  0  0  0
    6.1275   -2.8076   28.3731 C   0  0  0  0  0  0  0  0  0  0  0  0
    5.3079   -3.7818   29.1663 N   0  0  0  0  0  0  0  0  0  0  0  0
    4.6007   -4.9074   28.4713 C   0  0  0  0  0  0  0  0  0  0  0  0
    4.7132   -5.0587   26.9831 C   0  0  0  0  0  0  0  0  0  0  0  0
    4.0060   -6.1844   26.2881 C   0  0  0  0  0  0  0  0  0  0  0  0
    4.1186   -6.3356   24.8000 C   0  0  0  0  0  0  0  0  0  0  0  0
    4.9382   -5.3614   24.0069 C   0  0  0  0  0  0  0  0  0  0  0  0
    5.6454   -4.2358   24.7019 C   0  0  0  0  0  0  0  0  0  0  0  0
    5.5329   -4.0845   26.1900 C   0  0  0  0  0  0  0  0  0  0  0  0
   10.8224    1.8716   22.8734 C   0  0  0  0  0  0  0  0  0  0  0  0
   12.0813    2.6703   23.0388 C   0  0  0  0  0  0  0  0  0  0  0  0
   11.3303    5.1506   22.8541 C   0  0  0  0  0  0  0  0  0  0  0  0
   12.0209    4.0553   23.6114 N   0  0  0  0  0  0  0  0  0  0  0  0
   12.4496    4.2524   24.5157 H   0  0  0  0  0  0  0  0  0  0  0  0
   12.4906    3.3106   24.1263 H   0  0  0  0  0  0  0  0  0  0  0  0
 31 32  1  0  0  0
 32 30  1  0  0  0
 30 29  1  0  0  0
 29  1  1  0  0  0
  1  2  1  0  0  0
  3  2  1  0  0  0
  3  4  1  0  0  0
  4  5  2  0  0  0
  4  6  1  0  0  0
  6 19  1  0  0  0
 19 20  2  0  0  0
 20 21  1  0  0  0
 21 22  2  0  0  0
 22 23  1  0  0  0
 23 24  2  0  0  0
 24 25  1  0  0  0
 25 26  2  0  0  0
 26 27  1  0  0  0
 27 28  2  0  0  0
  6  7  1  0  0  0
  7  8  1  0  0  0
  8  9  1  0  0  0
  3 10  1  0  0  0
 10 11  2  0  0  0
 11 12  1  0  0  0
 12 13  1  0  0  0
 12 14  2  0  0  0
 14 15  1  0  0  0
 15 16  2  0  0  0
 16 17  1  0  0  0
 17 18  2  0  0  0
 17  1  1  0  0  0
  8  3  1  0  0  0
 16 10  1  0  0  0
 28 19  1  0  0  0
 28 23  1  0  0  0
 32 33  1  0  0  0
 32 34  1  0  0  0
M  CHG 1  32   1
M  END
> <minimizedAffinity>
-8.25133

> <CNNscore>
0.4773736894

> <CNNaffinity>
6.4063415527

> <CNN_VS>
3.0582189560

> <CNNaffinity_variance>
0.2170907259

$$$$



 34 38  0  0  0  0  0  0  0  0999 V2000
    8.4032    4.4549   23.3819 N   0  0  0  0  0  0  0  0  0  0  0  0
    7.6519    3.2082   23.7440 C   0  0  0  0  0  0  0  0  0  0  0  0
    8.3446    1.8782   23.7088 C   0  0  0  0  0  0  0  0  0  0  0  0
    8.9010    0.4853   23.7197 C   0  0  0  0  0  0  0  0  0  0  0  0
    9.9403   -0.1037   23.4975 O   0  0  0  0  0  0  0  0  0  0  0  0
    7.8052   -0.4484   24.1412 N   0  0  0  0  0  0  0  0  0  0  0  0
    6.5715    0.3676   24.3909 C   0  0  0  0  0  0  0  0  0  0  0  0
    6.9049    1.8055   24.1236 C   0  0  0  0  0  0  0  0  0  0  0  0
    5.9638    2.9667   24.2492 C   0  0  0  0  0  0  0  0  0  0  0  0
    9.7887    1.7949   23.3116 C   0  0  0  0  0  0  0  0  0  0  0  0
   10.4813    0.4649   23.2764 C   0  0  0  0  0  0  0  0  0  0  0  0
   11.9254    0.3817   22.8792 C   0  0  0  0  0  0  0  0  0  0  0  0
   12.6181   -0.9484   22.8440 F   0  0  0  0  0  0  0  0  0  0  0  0
   12.6767    1.6284   22.5171 C   0  0  0  0  0  0  0  0  0  0  0  0
   11.9840    2.9584   22.5522 C   0  0  0  0  0  0  0  0  0  0  0  0
   10.5400    3.0416   22.9495 C   0  0  0  0  0  0  0  0  0  0  0  0
    9.8473    4.3717   22.9846 C   0  0  0  0  0  0  0  0  0  0  0  0
   10.5986    5.6184   22.6225 O   0  0  0  0  0  0  0  0  0  0  0  0
    7.9225   -1.9366   24.2874 C   0  0  0  0  0  0  0  0  0  0  0  0
    6.9078   -2.8356   23.6454 C   0  0  0  0  0  0  0  0  0  0  0  0
    7.0251   -4.3238   23.7916 N   0  0  0  0  0  0  0  0  0  0  0  0
    8.1571   -4.9131   24.5798 C   0  0  0  0  0  0  0  0  0  0  0  0
    9.1718   -4.0140   25.2219 C   0  0  0  0  0  0  0  0  0  0  0  0
   10.3039   -4.6033   26.0101 C   0  0  0  0  0  0  0  0  0  0  0  0
   11.3186   -3.7043   26.6521 C   0  0  0  0  0  0  0  0  0  0  0  0
   11.2013   -2.2160   26.5059 C   0  0  0  0  0  0  0  0  0  0  0  0
   10.0692   -1.6268   25.7177 C   0  0  0  0  0  0  0  0  0  0  0  0
    9.0545   -2.5258   25.0757 C   0  0  0  0  0  0  0  0  0  0  0  0
    7.7105    5.7850   23.4170 C   0  0  0  0  0  0  0  0  0  0  0  0
    6.6271    6.0927   22.4263 C   0  0  0  0  0  0  0  0  0  0  0  0
    5.8802    7.8136   20.6289 C   0  0  0  0  0  0  0  0  0  0  0  0
    6.9334    6.9191   21.2126 N   0  0  0  0  0  0  0  0  0  0  0  0
    7.8579    6.8729   20.7841 H   0  0  0  0  0  0  0  0  0  0  0  0
    7.6496    6.3109   21.6094 H   0  0  0  0  0  0  0  0  0  0  0  0
 31 32  1  0  0  0
 32 30  1  0  0  0
 30 29  1  0  0  0
 29  1  1  0  0  0
  1  2  1  0  0  0
  3  2  1  0  0  0
  3  4  1  0  0  0
  4  5  2  0  0  0
  4  6  1  0  0  0
  6 19  1  0  0  0
 19 20  2  0  0  0
 20 21  1  0  0  0
 21 22  2  0  0  0
 22 23  1  0  0  0
 23 24  2  0  0  0
 24 25  1  0  0  0
 25 26  2  0  0  0
 26 27  1  0  0  0
 27 28  2  0  0  0
  6  7  1  0  0  0
  7  8  1  0  0  0
  8  9  1  0  0  0
  3 10  1  0  0  0
 10 11  2  0  0  0
 11 12  1  0  0  0
 12 13  1  0  0  0
 12 14  2  0  0  0
 14 15  1  0  0  0
 15 16  2  0  0  0
 16 17  1  0  0  0
 17 18  2  0  0  0
 17  1  1  0  0  0
  8  3  1  0  0  0
 16 10  1  0  0  0
 28 19  1  0  0  0
 28 23  1  0  0  0
 32 33  1  0  0  0
 32 34  1  0  0  0
M  CHG 1  32   1
M  END
> <minimizedAffinity>
-7.41392

> <CNNscore>
0.3937527835

> <CNNaffinity>
6.3229475021

> <CNN_VS>
2.4896781445

> <CNNaffinity_variance>
0.2531104982

$$$$



 34 38  0  0  0  0  0  0  0  0999 V2000
    7.4319    4.4739   23.7909 N   0  0  0  0  0  0  0  0  0  0  0  0
    8.1336    3.2048   23.4074 C   0  0  0  0  0  0  0  0  0  0  0  0
    7.9676    1.9729   24.2469 C   0  0  0  0  0  0  0  0  0  0  0  0
    7.8972    0.6689   24.9848 C   0  0  0  0  0  0  0  0  0  0  0  0
    7.3753    0.1831   25.9687 O   0  0  0  0  0  0  0  0  0  0  0  0
    8.7491   -0.3249   24.2522 N   0  0  0  0  0  0  0  0  0  0  0  0
    9.3459    0.3649   23.0614 C   0  0  0  0  0  0  0  0  0  0  0  0
    8.8629    1.7850   23.0582 C   0  0  0  0  0  0  0  0  0  0  0  0
    9.2137    2.8332   22.0442 C   0  0  0  0  0  0  0  0  0  0  0  0
    7.0999    2.0100   25.4699 C   0  0  0  0  0  0  0  0  0  0  0  0
    6.9339    0.7781   26.3094 C   0  0  0  0  0  0  0  0  0  0  0  0
    6.0661    0.8153   27.5323 C   0  0  0  0  0  0  0  0  0  0  0  0
    5.9001   -0.4167   28.3719 F   0  0  0  0  0  0  0  0  0  0  0  0
    5.3644    2.0843   27.9158 C   0  0  0  0  0  0  0  0  0  0  0  0
    5.5304    3.3163   27.0763 C   0  0  0  0  0  0  0  0  0  0  0  0
    6.3981    3.2791   25.8534 C   0  0  0  0  0  0  0  0  0  0  0  0
    6.5642    4.5111   25.0138 C   0  0  0  0  0  0  0  0  0  0  0  0
    5.8625    5.7801   25.3973 O   0  0  0  0  0  0  0  0  0  0  0  0
    8.9659   -1.7571   24.6419 C   0  0  0  0  0  0  0  0  0  0  0  0
    7.8799   -2.7676   24.4195 C   0  0  0  0  0  0  0  0  0  0  0  0
    8.0968   -4.1998   24.8092 N   0  0  0  0  0  0  0  0  0  0  0  0
    9.3997   -4.6214   25.4213 C   0  0  0  0  0  0  0  0  0  0  0  0
   10.4857   -3.6109   25.6437 C   0  0  0  0  0  0  0  0  0  0  0  0
   11.7886   -4.0325   26.2559 C   0  0  0  0  0  0  0  0  0  0  0  0
   12.8746   -3.0220   26.4782 C   0  0  0  0  0  0  0  0  0  0  0  0
   12.6577   -1.5898   26.0885 C   0  0  0  0  0  0  0  0  0  0  0  0
   11.3548   -1.1682   25.4764 C   0  0  0  0  0  0  0  0  0  0  0  0
   10.2688   -2.1787   25.2540 C   0  0  0  0  0  0  0  0  0  0  0  0
    7.5980    5.7059   22.9513 C   0  0  0  0  0  0  0  0  0  0  0  0
    8.7420    6.6410   23.2097 C   0  0  0  0  0  0  0  0  0  0  0  0
   11.1751    6.0787   22.4929 C   0  0  0  0  0  0  0  0  0  0  0  0
    9.8616    6.7486   22.2173 N   0  0  0  0  0  0  0  0  0  0  0  0
    9.7297    7.2773   21.3551 H   0  0  0  0  0  0  0  0  0  0  0  0
    8.9684    7.2041   22.0299 H   0  0  0  0  0  0  0  0  0  0  0  0
 31 32  1  0  0  0
 32 30  1  0  0  0
 30 29  1  0  0  0
 29  1  1  0  0  0
  1  2  1  0  0  0
  3  2  1  0  0  0
  3  4  1  0  0  0
  4  5  2  0  0  0
  4  6  1  0  0  0
  6 19  1  0  0  0
 19 20  2  0  0  0
 20 21  1  0  0  0
 21 22  2  0  0  0
 22 23  1  0  0  0
 23 24  2  0  0  0
 24 25  1  0  0  0
 25 26  2  0  0  0
 26 27  1  0  0  0
 27 28  2  0  0  0
  6  7  1  0  0  0
  7  8  1  0  0  0
  8  9  1  0  0  0
  3 10  1  0  0  0
 10 11  2  0  0  0
 11 12  1  0  0  0
 12 13  1  0  0  0
 12 14  2  0  0  0
 14 15  1  0  0  0
 15 16  2  0  0  0
 16 17  1  0  0  0
 17 18  2  0  0  0
 17  1  1  0  0  0
  8  3  1  0  0  0
 16 10  1  0  0  0
 28 19  1  0  0  0
 28 23  1  0  0  0
 32 33  1  0  0  0
 32 34  1  0  0  0
M  CHG 1  32   1
M  END
> <minimizedAffinity>
-7.16047

> <CNNscore>
0.3595966101

> <CNNaffinity>
5.9669961929

> <CNN_VS>
2.1457116604

> <CNNaffinity_variance>
0.1824454963

$$$$



 34 38  0  0  0  0  0  0  0  0999 V2000
   10.8980    1.7207   22.8923 N   0  0  0  0  0  0  0  0  0  0  0  0
    9.5022    1.4712   23.3816 C   0  0  0  0  0  0  0  0  0  0  0  0
    9.2179    0.2972   24.2709 C   0  0  0  0  0  0  0  0  0  0  0  0
    8.7837   -0.8296   25.1607 C   0  0  0  0  0  0  0  0  0  0  0  0
    9.2484   -1.7946   25.7346 O   0  0  0  0  0  0  0  0  0  0  0  0
    7.3087   -0.6925   25.3962 N   0  0  0  0  0  0  0  0  0  0  0  0
    6.8311    0.5191   24.6518 C   0  0  0  0  0  0  0  0  0  0  0  0
    8.0111    1.1307   23.9564 C   0  0  0  0  0  0  0  0  0  0  0  0
    7.9883    2.3601   23.0973 C   0  0  0  0  0  0  0  0  0  0  0  0
   10.3293   -0.6274   24.6709 C   0  0  0  0  0  0  0  0  0  0  0  0
   10.0450   -1.8013   25.5602 C   0  0  0  0  0  0  0  0  0  0  0  0
   11.1564   -2.7258   25.9601 C   0  0  0  0  0  0  0  0  0  0  0  0
   10.8721   -3.8999   26.8494 F   0  0  0  0  0  0  0  0  0  0  0  0
   12.5522   -2.4763   25.4707 C   0  0  0  0  0  0  0  0  0  0  0  0
   12.8366   -1.3024   24.5814 C   0  0  0  0  0  0  0  0  0  0  0  0
   11.7251   -0.3779   24.1815 C   0  0  0  0  0  0  0  0  0  0  0  0
   12.0095    0.7962   23.2922 C   0  0  0  0  0  0  0  0  0  0  0  0
   13.4053    1.0457   22.8028 O   0  0  0  0  0  0  0  0  0  0  0  0
    6.4601   -1.6065   26.2296 C   0  0  0  0  0  0  0  0  0  0  0  0
    6.2416   -3.0268   25.7994 C   0  0  0  0  0  0  0  0  0  0  0  0
    5.3931   -3.9408   26.6328 N   0  0  0  0  0  0  0  0  0  0  0  0
    4.7631   -3.4345   27.8964 C   0  0  0  0  0  0  0  0  0  0  0  0
    4.9816   -2.0142   28.3266 C   0  0  0  0  0  0  0  0  0  0  0  0
    4.3516   -1.5079   29.5903 C   0  0  0  0  0  0  0  0  0  0  0  0
    4.5702   -0.0876   30.0204 C   0  0  0  0  0  0  0  0  0  0  0  0
    5.4187    0.8264   29.1870 C   0  0  0  0  0  0  0  0  0  0  0  0
    6.0487    0.3201   27.9234 C   0  0  0  0  0  0  0  0  0  0  0  0
    5.8302   -1.1002   27.4932 C   0  0  0  0  0  0  0  0  0  0  0  0
   11.1824    2.8947   22.0029 C   0  0  0  0  0  0  0  0  0  0  0  0
   11.3639    4.2597   22.5979 C   0  0  0  0  0  0  0  0  0  0  0  0
   11.2040    6.8376   22.3175 C   0  0  0  0  0  0  0  0  0  0  0  0
   11.3454    5.4715   21.7142 N   0  0  0  0  0  0  0  0  0  0  0  0
   11.4289    5.3667   20.7031 H   0  0  0  0  0  0  0  0  0  0  0  0
   11.4415    4.5426   21.3040 H   0  0  0  0  0  0  0  0  0  0  0  0
 31 32  1  0  0  0
 32 30  1  0  0  0
 30 29  1  0  0  0
 29  1  1  0  0  0
  1  2  1  0  0  0
  3  2  1  0  0  0
  3  4  1  0  0  0
  4  5  2  0  0  0
  4  6  1  0  0  0
  6 19  1  0  0  0
 19 20  2  0  0  0
 20 21  1  0  0  0
 21 22  2  0  0  0
 22 23  1  0  0  0
 23 24  2  0  0  0
 24 25  1  0  0  0
 25 26  2  0  0  0
 26 27  1  0  0  0
 27 28  2  0  0  0
  6  7  1  0  0  0
  7  8  1  0  0  0
  8  9  1  0  0  0
  3 10  1  0  0  0
 10 11  2  0  0  0
 11 12  1  0  0  0
 12 13  1  0  0  0
 12 14  2  0  0  0
 14 15  1  0  0  0
 15 16  2  0  0  0
 16 17  1  0  0  0
 17 18  2  0  0  0
 17  1  1  0  0  0
  8  3  1  0  0  0
 16 10  1  0  0  0
 28 19  1  0  0  0
 28 23  1  0  0  0
 32 33  1  0  0  0
 32 34  1  0  0  0
M  CHG 1  32   1
M  END
> <minimizedAffinity>
-7.17937

> <CNNscore>
0.3563429415

> <CNNaffinity>
6.3449544907

> <CNN_VS>
2.2609796524

> <CNNaffinity_variance>
0.2247752696

$$$$



 34 38  0  0  0  0  0  0  0  0999 V2000
    3.9190   -5.2603   26.3080 N   0  0  0  0  0  0  0  0  0  0  0  0
    5.1601   -5.3372   25.4691 C   0  0  0  0  0  0  0  0  0  0  0  0
    6.0775   -4.1541   25.3766 C   0  0  0  0  0  0  0  0  0  0  0  0
    7.0842   -3.0581   25.1890 C   0  0  0  0  0  0  0  0  0  0  0  0
    7.2911   -1.9139   25.5416 O   0  0  0  0  0  0  0  0  0  0  0  0
    8.1587   -3.5672   24.2744 N   0  0  0  0  0  0  0  0  0  0  0  0
    7.8159   -4.9778   23.8968 C   0  0  0  0  0  0  0  0  0  0  0  0
    6.5297   -5.3405   24.5780 C   0  0  0  0  0  0  0  0  0  0  0  0
    5.8202   -6.6583   24.4780 C   0  0  0  0  0  0  0  0  0  0  0  0
    5.7538   -2.8939   26.1232 C   0  0  0  0  0  0  0  0  0  0  0  0
    6.6711   -1.7108   26.0308 C   0  0  0  0  0  0  0  0  0  0  0  0
    6.3474   -0.4507   26.7773 C   0  0  0  0  0  0  0  0  0  0  0  0
    7.2648    0.7326   26.6849 F   0  0  0  0  0  0  0  0  0  0  0  0
    5.1064   -0.3737   27.6162 C   0  0  0  0  0  0  0  0  0  0  0  0
    4.1890   -1.5569   27.7087 C   0  0  0  0  0  0  0  0  0  0  0  0
    4.5127   -2.8169   26.9621 C   0  0  0  0  0  0  0  0  0  0  0  0
    3.5953   -4.0002   27.0545 C   0  0  0  0  0  0  0  0  0  0  0  0
    2.3543   -3.9232   27.8935 O   0  0  0  0  0  0  0  0  0  0  0  0
    9.3642   -2.8002   23.8177 C   0  0  0  0  0  0  0  0  0  0  0  0
    9.3100   -2.0049   22.5471 C   0  0  0  0  0  0  0  0  0  0  0  0
   10.5155   -1.2380   22.0904 N   0  0  0  0  0  0  0  0  0  0  0  0
   11.7751   -1.2664   22.9043 C   0  0  0  0  0  0  0  0  0  0  0  0
   11.8293   -2.0618   24.1749 C   0  0  0  0  0  0  0  0  0  0  0  0
   13.0890   -2.0902   24.9888 C   0  0  0  0  0  0  0  0  0  0  0  0
   13.1431   -2.8856   26.2594 C   0  0  0  0  0  0  0  0  0  0  0  0
   11.9376   -3.6525   26.7162 C   0  0  0  0  0  0  0  0  0  0  0  0
   10.6779   -3.6241   25.9023 C   0  0  0  0  0  0  0  0  0  0  0  0
   10.6238   -2.8287   24.6316 C   0  0  0  0  0  0  0  0  0  0  0  0
    3.0017   -6.4435   26.4004 C   0  0  0  0  0  0  0  0  0  0  0  0
    1.8914   -6.6112   25.4058 C   0  0  0  0  0  0  0  0  0  0  0  0
    1.0773   -6.4045   22.9473 C   0  0  0  0  0  0  0  0  0  0  0  0
    2.1906   -6.5846   23.9362 N   0  0  0  0  0  0  0  0  0  0  0  0
    3.1512   -6.6891   23.6094 H   0  0  0  0  0  0  0  0  0  0  0  0
    2.9477   -6.7071   24.6087 H   0  0  0  0  0  0  0  0  0  0  0  0
 31 32  1  0  0  0
 32 30  1  0  0  0
 30 29  1  0  0  0
 29  1  1  0  0  0
  1  2  1  0  0  0
  3  2  1  0  0  0
  3  4  1  0  0  0
  4  5  2  0  0  0
  4  6  1  0  0  0
  6 19  1  0  0  0
 19 20  2  0  0  0
 20 21  1  0  0  0
 21 22  2  0  0  0
 22 23  1  0  0  0
 23 24  2  0  0  0
 24 25  1  0  0  0
 25 26  2  0  0  0
 26 27  1  0  0  0
 27 28  2  0  0  0
  6  7  1  0  0  0
  7  8  1  0  0  0
  8  9  1  0  0  0
  3 10  1  0  0  0
 10 11  2  0  0  0
 11 12  1  0  0  0
 12 13  1  0  0  0
 12 14  2  0  0  0
 14 15  1  0  0  0
 15 16  2  0  0  0
 16 17  1  0  0  0
 17 18  2  0  0  0
 17  1  1  0  0  0
  8  3  1  0  0  0
 16 10  1  0  0  0
 28 19  1  0  0  0
 28 23  1  0  0  0
 32 33  1  0  0  0
 32 34  1  0  0  0
M  CHG 1  32   1
M  END
> <minimizedAffinity>
-6.99702

> <CNNscore>
0.3521580100

> <CNNaffinity>
6.1748385429

> <CNN_VS>
2.1745188236

> <CNNaffinity_variance>
0.1062439457

$$$$



 34 38  0  0  0  0  0  0  0  0999 V2000
    9.3099    4.5159   23.1138 N   0  0  0  0  0  0  0  0  0  0  0  0
    8.0867    3.6479   23.0968 C   0  0  0  0  0  0  0  0  0  0  0  0
    8.2267    2.1559   23.0298 C   0  0  0  0  0  0  0  0  0  0  0  0
    8.2098    0.6574   22.9652 C   0  0  0  0  0  0  0  0  0  0  0  0
    8.9801   -0.2807   22.9116 O   0  0  0  0  0  0  0  0  0  0  0  0
    6.7783    0.2093   22.9698 N   0  0  0  0  0  0  0  0  0  0  0  0
    5.9104    1.4309   23.0373 C   0  0  0  0  0  0  0  0  0  0  0  0
    6.8056    2.6340   23.0744 C   0  0  0  0  0  0  0  0  0  0  0  0
    6.3582    4.0640   23.1438 C   0  0  0  0  0  0  0  0  0  0  0  0
    9.5899    1.5320   22.9799 C   0  0  0  0  0  0  0  0  0  0  0  0
    9.7299    0.0401   22.9129 C   0  0  0  0  0  0  0  0  0  0  0  0
   11.0930   -0.5838   22.8630 C   0  0  0  0  0  0  0  0  0  0  0  0
   11.2330   -2.0758   22.7960 F   0  0  0  0  0  0  0  0  0  0  0  0
   12.3162    0.2842   22.8801 C   0  0  0  0  0  0  0  0  0  0  0  0
   12.1762    1.7761   22.9470 C   0  0  0  0  0  0  0  0  0  0  0  0
   10.8131    2.4000   22.9969 C   0  0  0  0  0  0  0  0  0  0  0  0
   10.6731    3.8920   23.0639 C   0  0  0  0  0  0  0  0  0  0  0  0
   11.8963    4.7601   23.0810 O   0  0  0  0  0  0  0  0  0  0  0  0
    6.2988   -1.2110   22.9163 C   0  0  0  0  0  0  0  0  0  0  0  0
    5.8413   -1.7996   21.6147 C   0  0  0  0  0  0  0  0  0  0  0  0
    5.3619   -3.2199   21.5612 N   0  0  0  0  0  0  0  0  0  0  0  0
    5.3399   -4.0516   22.8093 C   0  0  0  0  0  0  0  0  0  0  0  0
    5.7975   -3.4629   24.1109 C   0  0  0  0  0  0  0  0  0  0  0  0
    5.7755   -4.2946   25.3591 C   0  0  0  0  0  0  0  0  0  0  0  0
    6.2331   -3.7059   26.6607 C   0  0  0  0  0  0  0  0  0  0  0  0
    6.7125   -2.2856   26.7142 C   0  0  0  0  0  0  0  0  0  0  0  0
    6.7344   -1.4539   25.4660 C   0  0  0  0  0  0  0  0  0  0  0  0
    6.2769   -2.0426   24.1644 C   0  0  0  0  0  0  0  0  0  0  0  0
    9.1699    6.0079   23.1808 C   0  0  0  0  0  0  0  0  0  0  0  0
   10.2689    6.8883   22.6640 C   0  0  0  0  0  0  0  0  0  0  0  0
   10.7655    7.8253   25.0357 C   0  0  0  0  0  0  0  0  0  0  0  0
   11.2010    7.5661   23.6239 N   0  0  0  0  0  0  0  0  0  0  0  0
   12.1311    7.8508   23.3167 H   0  0  0  0  0  0  0  0  0  0  0  0
   11.4972    7.3899   22.6639 H   0  0  0  0  0  0  0  0  0  0  0  0
 31 32  1  0  0  0
 32 30  1  0  0  0
 30 29  1  0  0  0
 29  1  1  0  0  0
  1  2  1  0  0  0
  3  2  1  0  0  0
  3  4  1  0  0  0
  4  5  2  0  0  0
  4  6  1  0  0  0
  6 19  1  0  0  0
 19 20  2  0  0  0
 20 21  1  0  0  0
 21 22  2  0  0  0
 22 23  1  0  0  0
 23 24  2  0  0  0
 24 25  1  0  0  0
 25 26  2  0  0  0
 26 27  1  0  0  0
 27 28  2  0  0  0
  6  7  1  0  0  0
  7  8  1  0  0  0
  8  9  1  0  0  0
  3 10  1  0  0  0
 10 11  2  0  0  0
 11 12  1  0  0  0
 12 13  1  0  0  0
 12 14  2  0  0  0
 14 15  1  0  0  0
 15 16  2  0  0  0
 16 17  1  0  0  0
 17 18  2  0  0  0
 17  1  1  0  0  0
  8  3  1  0  0  0
 16 10  1  0  0  0
 28 19  1  0  0  0
 28 23  1  0  0  0
 32 33  1  0  0  0
 32 34  1  0  0  0
M  CHG 1  32   1
M  END
> <minimizedAffinity>
-6.79636

> <CNNscore>
0.3038358092

> <CNNaffinity>
6.3561763763

> <CNN_VS>
1.9312340021

> <CNNaffinity_variance>
0.4573777616

$$$$



 34 38  0  0  0  0  0  0  0  0999 V2000
   10.8250    1.6757   22.9641 N   0  0  0  0  0  0  0  0  0  0  0  0
    9.4431    1.3437   23.4439 C   0  0  0  0  0  0  0  0  0  0  0  0
    9.2091    0.1060   24.2583 C   0  0  0  0  0  0  0  0  0  0  0  0
    8.8238   -1.0903   25.0771 C   0  0  0  0  0  0  0  0  0  0  0  0
    9.3282   -2.0715   25.5862 O   0  0  0  0  0  0  0  0  0  0  0  0
    7.3465   -1.0237   25.3284 N   0  0  0  0  0  0  0  0  0  0  0  0
    6.8188    0.2138   24.6650 C   0  0  0  0  0  0  0  0  0  0  0  0
    7.9700    0.9120   24.0036 C   0  0  0  0  0  0  0  0  0  0  0  0
    7.8951    2.1915   23.2244 C   0  0  0  0  0  0  0  0  0  0  0  0
   10.3571   -0.7997   24.5930 C   0  0  0  0  0  0  0  0  0  0  0  0
   10.1231   -2.0374   25.4075 C   0  0  0  0  0  0  0  0  0  0  0  0
   11.2710   -2.9431   25.7422 C   0  0  0  0  0  0  0  0  0  0  0  0
   11.0371   -4.1808   26.5567 F   0  0  0  0  0  0  0  0  0  0  0  0
   12.6529   -2.6111   25.2624 C   0  0  0  0  0  0  0  0  0  0  0  0
   12.8868   -1.3734   24.4479 C   0  0  0  0  0  0  0  0  0  0  0  0
   11.7389   -0.4677   24.1132 C   0  0  0  0  0  0  0  0  0  0  0  0
   11.9729    0.7700   23.2987 C   0  0  0  0  0  0  0  0  0  0  0  0
   13.3547    1.1020   22.8189 O   0  0  0  0  0  0  0  0  0  0  0  0
    6.5387   -2.0196   26.1066 C   0  0  0  0  0  0  0  0  0  0  0  0
    6.1828   -1.7429   27.5372 C   0  0  0  0  0  0  0  0  0  0  0  0
    5.3751   -2.7388   28.3154 N   0  0  0  0  0  0  0  0  0  0  0  0
    4.9232   -4.0116   27.6629 C   0  0  0  0  0  0  0  0  0  0  0  0
    5.2791   -4.2884   26.2322 C   0  0  0  0  0  0  0  0  0  0  0  0
    4.8271   -5.5613   25.5797 C   0  0  0  0  0  0  0  0  0  0  0  0
    5.1830   -5.8380   24.1490 C   0  0  0  0  0  0  0  0  0  0  0  0
    5.9908   -4.8420   23.3709 C   0  0  0  0  0  0  0  0  0  0  0  0
    6.4427   -3.5692   24.0234 C   0  0  0  0  0  0  0  0  0  0  0  0
    6.0868   -3.2924   25.4541 C   0  0  0  0  0  0  0  0  0  0  0  0
   11.0589    2.9134   22.1496 C   0  0  0  0  0  0  0  0  0  0  0  0
   12.0483    3.9408   22.6138 C   0  0  0  0  0  0  0  0  0  0  0  0
   11.1457    6.3703   22.4326 C   0  0  0  0  0  0  0  0  0  0  0  0
   11.5685    5.2007   23.2713 N   0  0  0  0  0  0  0  0  0  0  0  0
   11.5297    5.2622   24.2887 H   0  0  0  0  0  0  0  0  0  0  0  0
   11.8560    4.4054   23.8416 H   0  0  0  0  0  0  0  0  0  0  0  0
 31 32  1  0  0  0
 32 30  1  0  0  0
 30 29  1  0  0  0
 29  1  1  0  0  0
  1  2  1  0  0  0
  3  2  1  0  0  0
  3  4  1  0  0  0
  4  5  2  0  0  0
  4  6  1  0  0  0
  6 19  1  0  0  0
 19 20  2  0  0  0
 20 21  1  0  0  0
 21 22  2  0  0  0
 22 23  1  0  0  0
 23 24  2  0  0  0
 24 25  1  0  0  0
 25 26  2  0  0  0
 26 27  1  0  0  0
 27 28  2  0  0  0
  6  7  1  0  0  0
  7  8  1  0  0  0
  8  9  1  0  0  0
  3 10  1  0  0  0
 10 11  2  0  0  0
 11 12  1  0  0  0
 12 13  1  0  0  0
 12 14  2  0  0  0
 14 15  1  0  0  0
 15 16  2  0  0  0
 16 17  1  0  0  0
 17 18  2  0  0  0
 17  1  1  0  0  0
  8  3  1  0  0  0
 16 10  1  0  0  0
 28 19  1  0  0  0
 28 23  1  0  0  0
 32 33  1  0  0  0
 32 34  1  0  0  0
M  CHG 1  32   1
M  END
> <minimizedAffinity>
-7.65187

> <CNNscore>
0.2960023284

> <CNNaffinity>
6.3233294487

> <CNN_VS>
1.8717201948

> <CNNaffinity_variance>
0.1972174048

$$$$



 34 38  0  0  0  0  0  0  0  0999 V2000
   10.3225   -3.1911   25.0902 N   0  0  0  0  0  0  0  0  0  0  0  0
    9.0746   -3.1968   24.2579 C   0  0  0  0  0  0  0  0  0  0  0  0
    8.7566   -2.0266   23.3750 C   0  0  0  0  0  0  0  0  0  0  0  0
    8.3089   -0.9341   22.4498 C   0  0  0  0  0  0  0  0  0  0  0  0
    8.6648    0.1607   22.0613 O   0  0  0  0  0  0  0  0  0  0  0  0
    7.0128   -1.3580   21.8248 N   0  0  0  0  0  0  0  0  0  0  0  0
    6.6595   -2.7125   22.3638 C   0  0  0  0  0  0  0  0  0  0  0  0
    7.7372   -3.1257   23.3218 C   0  0  0  0  0  0  0  0  0  0  0  0
    7.7868   -4.4122   24.0916 C   0  0  0  0  0  0  0  0  0  0  0  0
    9.6865   -0.8507   23.3244 C   0  0  0  0  0  0  0  0  0  0  0  0
    9.3685    0.3195   22.4415 C   0  0  0  0  0  0  0  0  0  0  0  0
   10.2985    1.4953   22.3909 C   0  0  0  0  0  0  0  0  0  0  0  0
    9.9805    2.6656   21.5080 F   0  0  0  0  0  0  0  0  0  0  0  0
   11.5464    1.5010   23.2231 C   0  0  0  0  0  0  0  0  0  0  0  0
   11.8644    0.3308   24.1060 C   0  0  0  0  0  0  0  0  0  0  0  0
   10.9344   -0.8450   24.1566 C   0  0  0  0  0  0  0  0  0  0  0  0
   11.2524   -2.0153   25.0395 C   0  0  0  0  0  0  0  0  0  0  0  0
   12.5003   -2.0097   25.8718 O   0  0  0  0  0  0  0  0  0  0  0  0
    6.2109   -0.5664   20.8347 C   0  0  0  0  0  0  0  0  0  0  0  0
    6.5832   -0.5854   19.3817 C   0  0  0  0  0  0  0  0  0  0  0  0
    5.7813    0.2062   18.3916 N   0  0  0  0  0  0  0  0  0  0  0  0
    4.6072    1.0168   18.8545 C   0  0  0  0  0  0  0  0  0  0  0  0
    4.2349    1.0358   20.3075 C   0  0  0  0  0  0  0  0  0  0  0  0
    3.0606    1.8464   20.7703 C   0  0  0  0  0  0  0  0  0  0  0  0
    2.6884    1.8653   22.2233 C   0  0  0  0  0  0  0  0  0  0  0  0
    3.4903    1.0737   23.2134 C   0  0  0  0  0  0  0  0  0  0  0  0
    4.6645    0.2631   22.7505 C   0  0  0  0  0  0  0  0  0  0  0  0
    5.0368    0.2442   21.2976 C   0  0  0  0  0  0  0  0  0  0  0  0
   10.6404   -4.3614   25.9731 C   0  0  0  0  0  0  0  0  0  0  0  0
   10.7964   -4.1646   27.4519 C   0  0  0  0  0  0  0  0  0  0  0  0
    8.3088   -3.5439   27.8718 C   0  0  0  0  0  0  0  0  0  0  0  0
    9.5883   -4.1707   28.3409 N   0  0  0  0  0  0  0  0  0  0  0  0
    9.6368   -4.6010   29.2644 H   0  0  0  0  0  0  0  0  0  0  0  0
   10.4584   -4.5969   28.6599 H   0  0  0  0  0  0  0  0  0  0  0  0
 31 32  1  0  0  0
 32 30  1  0  0  0
 30 29  1  0  0  0
 29  1  1  0  0  0
  1  2  1  0  0  0
  3  2  1  0  0  0
  3  4  1  0  0  0
  4  5  2  0  0  0
  4  6  1  0  0  0
  6 19  1  0  0  0
 19 20  2  0  0  0
 20 21  1  0  0  0
 21 22  2  0  0  0
 22 23  1  0  0  0
 23 24  2  0  0  0
 24 25  1  0  0  0
 25 26  2  0  0  0
 26 27  1  0  0  0
 27 28  2  0  0  0
  6  7  1  0  0  0
  7  8  1  0  0  0
  8  9  1  0  0  0
  3 10  1  0  0  0
 10 11  2  0  0  0
 11 12  1  0  0  0
 12 13  1  0  0  0
 12 14  2  0  0  0
 14 15  1  0  0  0
 15 16  2  0  0  0
 16 17  1  0  0  0
 17 18  2  0  0  0
 17  1  1  0  0  0
  8  3  1  0  0  0
 16 10  1  0  0  0
 28 19  1  0  0  0
 28 23  1  0  0  0
 32 33  1  0  0  0
 32 34  1  0  0  0
M  CHG 1  32   1
M  END
> <minimizedAffinity>
-8.05756

> <CNNscore>
0.2204222381

> <CNNaffinity>
6.0713820457

> <CNN_VS>
1.3382675648

> <CNNaffinity_variance>
0.1546769291

$$$$
