


 34 38  0  0  0  0  0  0  0  0999 V2000
   -7.4689   -1.1219  -23.5024 N   0  0  0  0  0  0  0  0  0  0  0  0
   -7.8437    0.3224  -23.6556 C   0  0  0  0  0  0  0  0  0  0  0  0
   -9.2847    0.7341  -23.5927 C   0  0  0  0  0  0  0  0  0  0  0  0
  -10.6761    1.2929  -23.5524 C   0  0  0  0  0  0  0  0  0  0  0  0
  -11.8247    0.9216  -23.4136 O   0  0  0  0  0  0  0  0  0  0  0  0
  -10.5853    2.7774  -23.7479 N   0  0  0  0  0  0  0  0  0  0  0  0
   -9.1378    3.1359  -23.9090 C   0  0  0  0  0  0  0  0  0  0  0  0
   -8.3340    1.8731  -23.8131 C   0  0  0  0  0  0  0  0  0  0  0  0
   -6.8414    1.7678  -23.9190 C   0  0  0  0  0  0  0  0  0  0  0  0
  -10.3510   -0.2987  -23.3766 C   0  0  0  0  0  0  0  0  0  0  0  0
  -11.7920    0.1130  -23.3137 C   0  0  0  0  0  0  0  0  0  0  0  0
  -12.8582   -0.9197  -23.0975 C   0  0  0  0  0  0  0  0  0  0  0  0
  -14.2993   -0.5081  -23.0346 F   0  0  0  0  0  0  0  0  0  0  0  0
  -12.4834   -2.3640  -22.9443 C   0  0  0  0  0  0  0  0  0  0  0  0
  -11.0424   -2.7756  -23.0072 C   0  0  0  0  0  0  0  0  0  0  0  0
   -9.9762   -1.7430  -23.2234 C   0  0  0  0  0  0  0  0  0  0  0  0
   -8.5351   -2.1546  -23.2863 C   0  0  0  0  0  0  0  0  0  0  0  0
   -8.1603   -3.5989  -23.1331 O   0  0  0  0  0  0  0  0  0  0  0  0
  -11.7394    3.7350  -23.7772 C   0  0  0  0  0  0  0  0  0  0  0  0
  -12.5436    3.9786  -22.5346 C   0  0  0  0  0  0  0  0  0  0  0  0
  -13.6977    4.9363  -22.5639 N   0  0  0  0  0  0  0  0  0  0  0  0
  -14.0477    5.6504  -23.8357 C   0  0  0  0  0  0  0  0  0  0  0  0
  -13.2435    5.4068  -25.0783 C   0  0  0  0  0  0  0  0  0  0  0  0
  -13.5935    6.1210  -26.3502 C   0  0  0  0  0  0  0  0  0  0  0  0
  -12.7892    5.8773  -27.5927 C   0  0  0  0  0  0  0  0  0  0  0  0
  -11.6351    4.9197  -27.5634 C   0  0  0  0  0  0  0  0  0  0  0  0
  -11.2852    4.2056  -26.2916 C   0  0  0  0  0  0  0  0  0  0  0  0
  -12.0894    4.4491  -25.0490 C   0  0  0  0  0  0  0  0  0  0  0  0
   -6.0278   -1.5335  -23.5653 C   0  0  0  0  0  0  0  0  0  0  0  0
   -5.4807   -2.1602  -24.8134 C   0  0  0  0  0  0  0  0  0  0  0  0
   -6.1497   -4.3975  -25.9523 C   0  0  0  0  0  0  0  0  0  0  0  0
   -5.3640   -3.6523  -24.9144 N   0  0  0  0  0  0  0  0  0  0  0  0
   -4.7502   -4.1601  -24.2773 H   0  0  0  0  0  0  0  0  0  0  0  0
   -4.8296   -3.1455  -24.2087 H   0  0  0  0  0  0  0  0  0  0  0  0
 31 32  1  0  0  0
 32 30  1  0  0  0
 30 29  1  0  0  0
 29  1  1  0  0  0
  1  2  1  0  0  0
  3  2  1  0  0  0
  3  4  1  0  0  0
  4  5  2  0  0  0
  4  6  1  0  0  0
  6 19  1  0  0  0
 19 20  2  0  0  0
 20 21  1  0  0  0
 21 22  2  0  0  0
 22 23  1  0  0  0
 23 24  2  0  0  0
 24 25  1  0  0  0
 25 26  2  0  0  0
 26 27  1  0  0  0
 27 28  2  0  0  0
  6  7  1  0  0  0
  7  8  1  0  0  0
  8  9  1  0  0  0
  3 10  1  0  0  0
 10 11  2  0  0  0
 11 12  1  0  0  0
 12 13  1  0  0  0
 12 14  2  0  0  0
 14 15  1  0  0  0
 15 16  2  0  0  0
 16 17  1  0  0  0
 17 18  2  0  0  0
 17  1  1  0  0  0
  8  3  1  0  0  0
 16 10  1  0  0  0
 28 19  1  0  0  0
 28 23  1  0  0  0
 32 33  1  0  0  0
 32 34  1  0  0  0
M  CHG 1  32   1
M  END
> <minimizedAffinity>
-6.96150

> <CNNscore>
0.8413696885

> <CNNaffinity>
6.4867095947

> <CNN_VS>
5.4577207565

> <CNNaffinity_variance>
0.0687125623

$$$$



 34 38  0  0  0  0  0  0  0  0999 V2000
   -8.4456   -5.4857  -24.6262 N   0  0  0  0  0  0  0  0  0  0  0  0
   -7.3872   -5.1524  -23.6170 C   0  0  0  0  0  0  0  0  0  0  0  0
   -7.4474   -3.8543  -22.8679 C   0  0  0  0  0  0  0  0  0  0  0  0
   -7.3758   -2.6013  -22.0463 C   0  0  0  0  0  0  0  0  0  0  0  0
   -7.9855   -1.5644  -21.8752 O   0  0  0  0  0  0  0  0  0  0  0  0
   -6.1589   -2.6881  -21.1736 N   0  0  0  0  0  0  0  0  0  0  0  0
   -5.4783   -3.9946  -21.4559 C   0  0  0  0  0  0  0  0  0  0  0  0
   -6.2746   -4.7154  -22.5030 C   0  0  0  0  0  0  0  0  0  0  0  0
   -5.9544   -6.0610  -23.0833 C   0  0  0  0  0  0  0  0  0  0  0  0
   -8.5660   -2.8893  -23.1281 C   0  0  0  0  0  0  0  0  0  0  0  0
   -8.6262   -1.5912  -22.3790 C   0  0  0  0  0  0  0  0  0  0  0  0
   -9.7448   -0.6263  -22.6392 C   0  0  0  0  0  0  0  0  0  0  0  0
   -9.8050    0.6719  -21.8901 F   0  0  0  0  0  0  0  0  0  0  0  0
  -10.8032   -0.9596  -23.6484 C   0  0  0  0  0  0  0  0  0  0  0  0
  -10.7431   -2.2578  -24.3975 C   0  0  0  0  0  0  0  0  0  0  0  0
   -9.6245   -3.2226  -24.1373 C   0  0  0  0  0  0  0  0  0  0  0  0
   -9.5642   -4.5208  -24.8864 C   0  0  0  0  0  0  0  0  0  0  0  0
  -10.6227   -4.8541  -25.8957 O   0  0  0  0  0  0  0  0  0  0  0  0
   -5.7026   -1.6504  -20.1912 C   0  0  0  0  0  0  0  0  0  0  0  0
   -6.1029   -1.7553  -18.7494 C   0  0  0  0  0  0  0  0  0  0  0  0
   -5.6467   -0.7177  -17.7670 N   0  0  0  0  0  0  0  0  0  0  0  0
   -4.7902    0.4248  -18.2264 C   0  0  0  0  0  0  0  0  0  0  0  0
   -4.3899    0.5297  -19.6682 C   0  0  0  0  0  0  0  0  0  0  0  0
   -3.5334    1.6723  -20.1276 C   0  0  0  0  0  0  0  0  0  0  0  0
   -3.1332    1.7771  -21.5694 C   0  0  0  0  0  0  0  0  0  0  0  0
   -3.5894    0.7394  -22.5518 C   0  0  0  0  0  0  0  0  0  0  0  0
   -4.4459   -0.4031  -22.0924 C   0  0  0  0  0  0  0  0  0  0  0  0
   -4.8461   -0.5079  -20.6506 C   0  0  0  0  0  0  0  0  0  0  0  0
   -8.3854   -6.7839  -25.3753 C   0  0  0  0  0  0  0  0  0  0  0  0
   -9.5239   -7.1910  -26.2631 C   0  0  0  0  0  0  0  0  0  0  0  0
   -8.2574   -6.7920  -28.4962 C   0  0  0  0  0  0  0  0  0  0  0  0
   -9.5326   -6.7826  -27.7064 N   0  0  0  0  0  0  0  0  0  0  0  0
  -10.4056   -6.4986  -28.1508 H   0  0  0  0  0  0  0  0  0  0  0  0
  -10.3997   -6.7763  -27.1694 H   0  0  0  0  0  0  0  0  0  0  0  0
 31 32  1  0  0  0
 32 30  1  0  0  0
 30 29  1  0  0  0
 29  1  1  0  0  0
  1  2  1  0  0  0
  3  2  1  0  0  0
  3  4  1  0  0  0
  4  5  2  0  0  0
  4  6  1  0  0  0
  6 19  1  0  0  0
 19 20  2  0  0  0
 20 21  1  0  0  0
 21 22  2  0  0  0
 22 23  1  0  0  0
 23 24  2  0  0  0
 24 25  1  0  0  0
 25 26  2  0  0  0
 26 27  1  0  0  0
 27 28  2  0  0  0
  6  7  1  0  0  0
  7  8  1  0  0  0
  8  9  1  0  0  0
  3 10  1  0  0  0
 10 11  2  0  0  0
 11 12  1  0  0  0
 12 13  1  0  0  0
 12 14  2  0  0  0
 14 15  1  0  0  0
 15 16  2  0  0  0
 16 17  1  0  0  0
 17 18  2  0  0  0
 17  1  1  0  0  0
  8  3  1  0  0  0
 16 10  1  0  0  0
 28 19  1  0  0  0
 28 23  1  0  0  0
 32 33  1  0  0  0
 32 34  1  0  0  0
M  CHG 1  32   1
M  END
> <minimizedAffinity>
-8.77996

> <CNNscore>
0.6210953593

> <CNNaffinity>
6.2431101799

> <CNN_VS>
3.8775668144

> <CNNaffinity_variance>
0.3363291621

$$$$



 34 38  0  0  0  0  0  0  0  0999 V2000
  -11.0073    3.3655  -23.9305 N   0  0  0  0  0  0  0  0  0  0  0  0
   -9.7082    2.6155  -23.9299 C   0  0  0  0  0  0  0  0  0  0  0  0
   -9.6995    1.1309  -23.7156 C   0  0  0  0  0  0  0  0  0  0  0  0
   -9.5345   -0.3465  -23.5154 C   0  0  0  0  0  0  0  0  0  0  0  0
  -10.2058   -1.3394  -23.3158 O   0  0  0  0  0  0  0  0  0  0  0  0
   -8.0705   -0.6639  -23.5911 N   0  0  0  0  0  0  0  0  0  0  0  0
   -7.3306    0.6173  -23.8382 C   0  0  0  0  0  0  0  0  0  0  0  0
   -8.3374    1.7265  -23.9151 C   0  0  0  0  0  0  0  0  0  0  0  0
   -8.0351    3.1768  -24.1503 C   0  0  0  0  0  0  0  0  0  0  0  0
  -10.9898    0.3963  -23.5020 C   0  0  0  0  0  0  0  0  0  0  0  0
  -10.9811   -1.0882  -23.2877 C   0  0  0  0  0  0  0  0  0  0  0  0
  -12.2713   -1.8227  -23.0741 C   0  0  0  0  0  0  0  0  0  0  0  0
  -12.2626   -3.3074  -22.8598 F   0  0  0  0  0  0  0  0  0  0  0  0
  -13.5703   -1.0727  -23.0747 C   0  0  0  0  0  0  0  0  0  0  0  0
  -13.5791    0.4119  -23.2890 C   0  0  0  0  0  0  0  0  0  0  0  0
  -12.2888    1.1464  -23.5026 C   0  0  0  0  0  0  0  0  0  0  0  0
  -12.2975    2.6310  -23.7169 C   0  0  0  0  0  0  0  0  0  0  0  0
  -13.5965    3.3811  -23.7175 O   0  0  0  0  0  0  0  0  0  0  0  0
   -7.4545   -2.0238  -23.4454 C   0  0  0  0  0  0  0  0  0  0  0  0
   -6.8522   -2.4380  -22.1355 C   0  0  0  0  0  0  0  0  0  0  0  0
   -6.2363   -3.7978  -21.9898 N   0  0  0  0  0  0  0  0  0  0  0  0
   -6.2225   -4.7436  -23.1540 C   0  0  0  0  0  0  0  0  0  0  0  0
   -6.8248   -4.3295  -24.4639 C   0  0  0  0  0  0  0  0  0  0  0  0
   -6.8110   -5.2753  -25.6281 C   0  0  0  0  0  0  0  0  0  0  0  0
   -7.4133   -4.8611  -26.9379 C   0  0  0  0  0  0  0  0  0  0  0  0
   -8.0293   -3.5012  -27.0837 C   0  0  0  0  0  0  0  0  0  0  0  0
   -8.0430   -2.5554  -25.9195 C   0  0  0  0  0  0  0  0  0  0  0  0
   -7.4407   -2.9696  -24.6096 C   0  0  0  0  0  0  0  0  0  0  0  0
  -11.0160    4.8502  -24.1448 C   0  0  0  0  0  0  0  0  0  0  0  0
  -11.1786    5.4074  -25.5279 C   0  0  0  0  0  0  0  0  0  0  0  0
  -13.5454    5.8277  -26.5137 C   0  0  0  0  0  0  0  0  0  0  0  0
  -12.3264    4.9631  -26.3853 N   0  0  0  0  0  0  0  0  0  0  0  0
  -12.2780    4.0729  -26.8810 H   0  0  0  0  0  0  0  0  0  0  0  0
  -11.4975    4.3751  -26.2980 H   0  0  0  0  0  0  0  0  0  0  0  0
 31 32  1  0  0  0
 32 30  1  0  0  0
 30 29  1  0  0  0
 29  1  1  0  0  0
  1  2  1  0  0  0
  3  2  1  0  0  0
  3  4  1  0  0  0
  4  5  2  0  0  0
  4  6  1  0  0  0
  6 19  1  0  0  0
 19 20  2  0  0  0
 20 21  1  0  0  0
 21 22  2  0  0  0
 22 23  1  0  0  0
 23 24  2  0  0  0
 24 25  1  0  0  0
 25 26  2  0  0  0
 26 27  1  0  0  0
 27 28  2  0  0  0
  6  7  1  0  0  0
  7  8  1  0  0  0
  8  9  1  0  0  0
  3 10  1  0  0  0
 10 11  2  0  0  0
 11 12  1  0  0  0
 12 13  1  0  0  0
 12 14  2  0  0  0
 14 15  1  0  0  0
 15 16  2  0  0  0
 16 17  1  0  0  0
 17 18  2  0  0  0
 17  1  1  0  0  0
  8  3  1  0  0  0
 16 10  1  0  0  0
 28 19  1  0  0  0
 28 23  1  0  0  0
 32 33  1  0  0  0
 32 34  1  0  0  0
M  CHG 1  32   1
M  END
> <minimizedAffinity>
-6.81919

> <CNNscore>
0.4187594056

> <CNNaffinity>
6.1975688934

> <CNN_VS>
2.5952901840

> <CNNaffinity_variance>
0.4293115735

$$$$



 34 38  0  0  0  0  0  0  0  0999 V2000
   -5.5220   -6.2047  -23.6129 N   0  0  0  0  0  0  0  0  0  0  0  0
   -6.0896   -4.9522  -23.0137 C   0  0  0  0  0  0  0  0  0  0  0  0
   -7.1101   -4.1546  -23.7702 C   0  0  0  0  0  0  0  0  0  0  0  0
   -8.1319   -3.2582  -24.4046 C   0  0  0  0  0  0  0  0  0  0  0  0
   -8.7872   -3.1690  -25.4239 O   0  0  0  0  0  0  0  0  0  0  0  0
   -8.4089   -2.1282  -23.4578 N   0  0  0  0  0  0  0  0  0  0  0  0
   -7.5583   -2.3261  -22.2383 C   0  0  0  0  0  0  0  0  0  0  0  0
   -6.7556   -3.5785  -22.4314 C   0  0  0  0  0  0  0  0  0  0  0  0
   -5.7712   -4.1537  -21.4567 C   0  0  0  0  0  0  0  0  0  0  0  0
   -7.5630   -4.6094  -25.1260 C   0  0  0  0  0  0  0  0  0  0  0  0
   -8.5834   -3.8117  -25.8825 C   0  0  0  0  0  0  0  0  0  0  0  0
   -9.0362   -4.2665  -27.2382 C   0  0  0  0  0  0  0  0  0  0  0  0
  -10.0568   -3.4689  -27.9948 F   0  0  0  0  0  0  0  0  0  0  0  0
   -8.4686   -5.5190  -27.8374 C   0  0  0  0  0  0  0  0  0  0  0  0
   -7.4481   -6.3167  -27.0809 C   0  0  0  0  0  0  0  0  0  0  0  0
   -6.9953   -5.8619  -25.7252 C   0  0  0  0  0  0  0  0  0  0  0  0
   -5.9748   -6.6595  -24.9686 C   0  0  0  0  0  0  0  0  0  0  0  0
   -5.4072   -7.9120  -25.5678 O   0  0  0  0  0  0  0  0  0  0  0  0
   -9.3681   -0.9986  -23.6899 C   0  0  0  0  0  0  0  0  0  0  0  0
   -8.8737    0.3022  -24.2499 C   0  0  0  0  0  0  0  0  0  0  0  0
   -9.8329    1.4318  -24.4819 N   0  0  0  0  0  0  0  0  0  0  0  0
  -11.2866    1.2606  -24.1541 C   0  0  0  0  0  0  0  0  0  0  0  0
  -11.7810   -0.0401  -23.5941 C   0  0  0  0  0  0  0  0  0  0  0  0
  -13.2348   -0.2113  -23.2663 C   0  0  0  0  0  0  0  0  0  0  0  0
  -13.7291   -1.5121  -22.7063 C   0  0  0  0  0  0  0  0  0  0  0  0
  -12.7699   -2.6417  -22.4742 C   0  0  0  0  0  0  0  0  0  0  0  0
  -11.3163   -2.4705  -22.8021 C   0  0  0  0  0  0  0  0  0  0  0  0
  -10.8218   -1.1697  -23.3620 C   0  0  0  0  0  0  0  0  0  0  0  0
   -4.5015   -7.0024  -22.8563 C   0  0  0  0  0  0  0  0  0  0  0  0
   -3.0872   -7.0727  -23.3512 C   0  0  0  0  0  0  0  0  0  0  0  0
   -0.7546   -8.0702  -22.7911 C   0  0  0  0  0  0  0  0  0  0  0  0
   -2.2284   -8.2521  -23.0025 N   0  0  0  0  0  0  0  0  0  0  0  0
   -2.6466   -9.1777  -22.9092 H   0  0  0  0  0  0  0  0  0  0  0  0
   -3.2306   -8.3757  -23.1463 H   0  0  0  0  0  0  0  0  0  0  0  0
 31 32  1  0  0  0
 32 30  1  0  0  0
 30 29  1  0  0  0
 29  1  1  0  0  0
  1  2  1  0  0  0
  3  2  1  0  0  0
  3  4  1  0  0  0
  4  5  2  0  0  0
  4  6  1  0  0  0
  6 19  1  0  0  0
 19 20  2  0  0  0
 20 21  1  0  0  0
 21 22  2  0  0  0
 22 23  1  0  0  0
 23 24  2  0  0  0
 24 25  1  0  0  0
 25 26  2  0  0  0
 26 27  1  0  0  0
 27 28  2  0  0  0
  6  7  1  0  0  0
  7  8  1  0  0  0
  8  9  1  0  0  0
  3 10  1  0  0  0
 10 11  2  0  0  0
 11 12  1  0  0  0
 12 13  1  0  0  0
 12 14  2  0  0  0
 14 15  1  0  0  0
 15 16  2  0  0  0
 16 17  1  0  0  0
 17 18  2  0  0  0
 17  1  1  0  0  0
  8  3  1  0  0  0
 16 10  1  0  0  0
 28 19  1  0  0  0
 28 23  1  0  0  0
 32 33  1  0  0  0
 32 34  1  0  0  0
M  CHG 1  32   1
M  END
> <minimizedAffinity>
-6.98222

> <CNNscore>
0.4171665609

> <CNNaffinity>
6.2580270767

> <CNN_VS>
2.6106395721

> <CNNaffinity_variance>
0.1064265370

$$$$



 34 38  0  0  0  0  0  0  0  0999 V2000
   -7.3561   -4.9595  -26.4560 N   0  0  0  0  0  0  0  0  0  0  0  0
   -7.3633   -3.6440  -25.7352 C   0  0  0  0  0  0  0  0  0  0  0  0
   -6.9595   -3.5774  -24.2921 C   0  0  0  0  0  0  0  0  0  0  0  0
   -6.5832   -3.3563  -22.8570 C   0  0  0  0  0  0  0  0  0  0  0  0
   -6.2027   -3.9821  -21.8875 O   0  0  0  0  0  0  0  0  0  0  0  0
   -6.7353   -1.8943  -22.5578 N   0  0  0  0  0  0  0  0  0  0  0  0
   -7.2057   -1.2118  -23.8080 C   0  0  0  0  0  0  0  0  0  0  0  0
   -7.3442   -2.2520  -24.8798 C   0  0  0  0  0  0  0  0  0  0  0  0
   -7.7894   -2.0094  -26.2916 C   0  0  0  0  0  0  0  0  0  0  0  0
   -6.5485   -4.8262  -23.5698 C   0  0  0  0  0  0  0  0  0  0  0  0
   -6.1448   -4.7595  -22.1267 C   0  0  0  0  0  0  0  0  0  0  0  0
   -5.7339   -6.0082  -21.4045 C   0  0  0  0  0  0  0  0  0  0  0  0
   -5.3301   -5.9416  -19.9613 F   0  0  0  0  0  0  0  0  0  0  0  0
   -5.7267   -7.3237  -22.1253 C   0  0  0  0  0  0  0  0  0  0  0  0
   -6.1305   -7.3904  -23.5684 C   0  0  0  0  0  0  0  0  0  0  0  0
   -6.5414   -6.1416  -24.2906 C   0  0  0  0  0  0  0  0  0  0  0  0
   -6.9452   -6.2082  -25.7338 C   0  0  0  0  0  0  0  0  0  0  0  0
   -6.9381   -7.5237  -26.4546 O   0  0  0  0  0  0  0  0  0  0  0  0
   -6.4646   -1.2313  -21.2398 C   0  0  0  0  0  0  0  0  0  0  0  0
   -7.4101   -1.4295  -20.0923 C   0  0  0  0  0  0  0  0  0  0  0  0
   -7.1394   -0.7665  -18.7743 N   0  0  0  0  0  0  0  0  0  0  0  0
   -5.9232    0.0947  -18.6038 C   0  0  0  0  0  0  0  0  0  0  0  0
   -4.9777    0.2929  -19.7513 C   0  0  0  0  0  0  0  0  0  0  0  0
   -3.7614    1.1542  -19.5808 C   0  0  0  0  0  0  0  0  0  0  0  0
   -2.8159    1.3523  -20.7284 C   0  0  0  0  0  0  0  0  0  0  0  0
   -3.0866    0.6893  -22.0464 C   0  0  0  0  0  0  0  0  0  0  0  0
   -4.3029   -0.1719  -22.2168 C   0  0  0  0  0  0  0  0  0  0  0  0
   -5.2484   -0.3701  -21.0693 C   0  0  0  0  0  0  0  0  0  0  0  0
   -7.7599   -5.0261  -27.8992 C   0  0  0  0  0  0  0  0  0  0  0  0
   -8.7406   -6.0650  -28.3563 C   0  0  0  0  0  0  0  0  0  0  0  0
  -10.5939   -6.3781  -26.5627 C   0  0  0  0  0  0  0  0  0  0  0  0
  -10.1800   -5.9699  -27.9455 N   0  0  0  0  0  0  0  0  0  0  0  0
  -10.8775   -5.6276  -28.6064 H   0  0  0  0  0  0  0  0  0  0  0  0
   -9.8986   -5.6923  -28.8858 H   0  0  0  0  0  0  0  0  0  0  0  0
 31 32  1  0  0  0
 32 30  1  0  0  0
 30 29  1  0  0  0
 29  1  1  0  0  0
  1  2  1  0  0  0
  3  2  1  0  0  0
  3  4  1  0  0  0
  4  5  2  0  0  0
  4  6  1  0  0  0
  6 19  1  0  0  0
 19 20  2  0  0  0
 20 21  1  0  0  0
 21 22  2  0  0  0
 22 23  1  0  0  0
 23 24  2  0  0  0
 24 25  1  0  0  0
 25 26  2  0  0  0
 26 27  1  0  0  0
 27 28  2  0  0  0
  6  7  1  0  0  0
  7  8  1  0  0  0
  8  9  1  0  0  0
  3 10  1  0  0  0
 10 11  2  0  0  0
 11 12  1  0  0  0
 12 13  1  0  0  0
 12 14  2  0  0  0
 14 15  1  0  0  0
 15 16  2  0  0  0
 16 17  1  0  0  0
 17 18  2  0  0  0
 17  1  1  0  0  0
  8  3  1  0  0  0
 16 10  1  0  0  0
 28 19  1  0  0  0
 28 23  1  0  0  0
 32 33  1  0  0  0
 32 34  1  0  0  0
M  CHG 1  32   1
M  END
> <minimizedAffinity>
-7.87442

> <CNNscore>
0.3947511613

> <CNNaffinity>
6.1109762192

> <CNN_VS>
2.4123148918

> <CNNaffinity_variance>
0.2221983373

$$$$



 34 38  0  0  0  0  0  0  0  0999 V2000
   -9.5858    2.7037  -24.3519 N   0  0  0  0  0  0  0  0  0  0  0  0
   -8.6140    1.5682  -24.4795 C   0  0  0  0  0  0  0  0  0  0  0  0
   -9.0616    0.1634  -24.2041 C   0  0  0  0  0  0  0  0  0  0  0  0
   -9.3625   -1.2861  -23.9622 C   0  0  0  0  0  0  0  0  0  0  0  0
  -10.2884   -2.0031  -23.6384 O   0  0  0  0  0  0  0  0  0  0  0  0
   -8.1051   -2.0673  -24.2046 N   0  0  0  0  0  0  0  0  0  0  0  0
   -7.0271   -1.1006  -24.5963 C   0  0  0  0  0  0  0  0  0  0  0  0
   -7.6183    0.2780  -24.5960 C   0  0  0  0  0  0  0  0  0  0  0  0
   -6.8933    1.5482  -24.9291 C   0  0  0  0  0  0  0  0  0  0  0  0
  -10.4811   -0.1061  -23.8010 C   0  0  0  0  0  0  0  0  0  0  0  0
  -10.9288   -1.5110  -23.5256 C   0  0  0  0  0  0  0  0  0  0  0  0
  -12.3482   -1.7804  -23.1225 C   0  0  0  0  0  0  0  0  0  0  0  0
  -12.7959   -3.1853  -22.8470 F   0  0  0  0  0  0  0  0  0  0  0  0
  -13.3201   -0.6449  -22.9949 C   0  0  0  0  0  0  0  0  0  0  0  0
  -12.8724    0.7599  -23.2703 C   0  0  0  0  0  0  0  0  0  0  0  0
  -11.4530    1.0293  -23.6734 C   0  0  0  0  0  0  0  0  0  0  0  0
  -11.0053    2.4343  -23.9488 C   0  0  0  0  0  0  0  0  0  0  0  0
  -11.9771    3.5697  -23.8212 O   0  0  0  0  0  0  0  0  0  0  0  0
   -7.9525   -3.5541  -24.0776 C   0  0  0  0  0  0  0  0  0  0  0  0
   -7.3292   -4.1416  -22.8462 C   0  0  0  0  0  0  0  0  0  0  0  0
   -7.1766   -5.6284  -22.7192 N   0  0  0  0  0  0  0  0  0  0  0  0
   -7.6474   -6.5277  -23.8235 C   0  0  0  0  0  0  0  0  0  0  0  0
   -8.2707   -5.9402  -25.0549 C   0  0  0  0  0  0  0  0  0  0  0  0
   -8.7415   -6.8395  -26.1593 C   0  0  0  0  0  0  0  0  0  0  0  0
   -9.3649   -6.2519  -27.3907 C   0  0  0  0  0  0  0  0  0  0  0  0
   -9.5174   -4.7651  -27.5177 C   0  0  0  0  0  0  0  0  0  0  0  0
   -9.0466   -3.8658  -26.4133 C   0  0  0  0  0  0  0  0  0  0  0  0
   -8.4233   -4.4534  -25.1819 C   0  0  0  0  0  0  0  0  0  0  0  0
   -9.1381    4.1086  -24.6274 C   0  0  0  0  0  0  0  0  0  0  0  0
   -9.2764    5.1612  -23.5677 C   0  0  0  0  0  0  0  0  0  0  0  0
   -7.0695    4.3500  -22.4625 C   0  0  0  0  0  0  0  0  0  0  0  0
   -8.2039    5.3290  -22.5326 N   0  0  0  0  0  0  0  0  0  0  0  0
   -8.2458    6.1088  -21.8765 H   0  0  0  0  0  0  0  0  0  0  0  0
   -8.9752    5.9947  -22.5803 H   0  0  0  0  0  0  0  0  0  0  0  0
 31 32  1  0  0  0
 32 30  1  0  0  0
 30 29  1  0  0  0
 29  1  1  0  0  0
  1  2  1  0  0  0
  3  2  1  0  0  0
  3  4  1  0  0  0
  4  5  2  0  0  0
  4  6  1  0  0  0
  6 19  1  0  0  0
 19 20  2  0  0  0
 20 21  1  0  0  0
 21 22  2  0  0  0
 22 23  1  0  0  0
 23 24  2  0  0  0
 24 25  1  0  0  0
 25 26  2  0  0  0
 26 27  1  0  0  0
 27 28  2  0  0  0
  6  7  1  0  0  0
  7  8  1  0  0  0
  8  9  1  0  0  0
  3 10  1  0  0  0
 10 11  2  0  0  0
 11 12  1  0  0  0
 12 13  1  0  0  0
 12 14  2  0  0  0
 14 15  1  0  0  0
 15 16  2  0  0  0
 16 17  1  0  0  0
 17 18  2  0  0  0
 17  1  1  0  0  0
  8  3  1  0  0  0
 16 10  1  0  0  0
 28 19  1  0  0  0
 28 23  1  0  0  0
 32 33  1  0  0  0
 32 34  1  0  0  0
M  CHG 1  32   1
M  END
> <minimizedAffinity>
-7.37775

> <CNNscore>
0.3850014806

> <CNNaffinity>
6.0826349258

> <CNN_VS>
2.3418233395

> <CNNaffinity_variance>
0.1397206336

$$$$



 34 38  0  0  0  0  0  0  0  0999 V2000
   -2.8836    2.1325  -21.9992 N   0  0  0  0  0  0  0  0  0  0  0  0
   -3.4350    1.1433  -22.9828 C   0  0  0  0  0  0  0  0  0  0  0  0
   -4.3074    0.0196  -22.5074 C   0  0  0  0  0  0  0  0  0  0  0  0
   -5.1890   -1.1496  -22.1820 C   0  0  0  0  0  0  0  0  0  0  0  0
   -5.7146   -1.6809  -21.2240 O   0  0  0  0  0  0  0  0  0  0  0  0
   -5.5005   -1.8659  -23.4627 N   0  0  0  0  0  0  0  0  0  0  0  0
   -4.8115   -1.1393  -24.5795 C   0  0  0  0  0  0  0  0  0  0  0  0
   -4.0742    0.0259  -23.9892 C   0  0  0  0  0  0  0  0  0  0  0  0
   -3.2485    1.0225  -24.7474 C   0  0  0  0  0  0  0  0  0  0  0  0
   -4.6284   -0.1151  -21.0483 C   0  0  0  0  0  0  0  0  0  0  0  0
   -5.5008   -1.2388  -20.5729 C   0  0  0  0  0  0  0  0  0  0  0  0
   -5.8218   -1.3734  -19.1139 C   0  0  0  0  0  0  0  0  0  0  0  0
   -6.6943   -2.4972  -18.6384 F   0  0  0  0  0  0  0  0  0  0  0  0
   -5.2704   -0.3843  -18.1303 C   0  0  0  0  0  0  0  0  0  0  0  0
   -4.3980    0.7395  -18.6057 C   0  0  0  0  0  0  0  0  0  0  0  0
   -4.0770    0.8741  -20.0647 C   0  0  0  0  0  0  0  0  0  0  0  0
   -3.2046    1.9979  -20.5402 C   0  0  0  0  0  0  0  0  0  0  0  0
   -2.6531    2.9870  -19.5566 O   0  0  0  0  0  0  0  0  0  0  0  0
   -6.3516   -3.0931  -23.6019 C   0  0  0  0  0  0  0  0  0  0  0  0
   -6.3301   -4.1460  -22.5337 C   0  0  0  0  0  0  0  0  0  0  0  0
   -7.1812   -5.3733  -22.6729 N   0  0  0  0  0  0  0  0  0  0  0  0
   -8.0538   -5.5477  -23.8804 C   0  0  0  0  0  0  0  0  0  0  0  0
   -8.0754   -4.4949  -24.9486 C   0  0  0  0  0  0  0  0  0  0  0  0
   -8.9481   -4.6693  -26.1562 C   0  0  0  0  0  0  0  0  0  0  0  0
   -8.9695   -3.6165  -27.2244 C   0  0  0  0  0  0  0  0  0  0  0  0
   -8.1184   -2.3892  -27.0851 C   0  0  0  0  0  0  0  0  0  0  0  0
   -7.2458   -2.2147  -25.8776 C   0  0  0  0  0  0  0  0  0  0  0  0
   -7.2243   -3.2676  -24.8094 C   0  0  0  0  0  0  0  0  0  0  0  0
   -2.0112    3.2563  -22.4747 C   0  0  0  0  0  0  0  0  0  0  0  0
   -2.4612    4.6774  -22.3076 C   0  0  0  0  0  0  0  0  0  0  0  0
   -1.0524    6.7190  -21.5348 C   0  0  0  0  0  0  0  0  0  0  0  0
   -1.8912    5.5199  -21.2052 N   0  0  0  0  0  0  0  0  0  0  0  0
   -2.0739    5.2774  -20.2315 H   0  0  0  0  0  0  0  0  0  0  0  0
   -2.4615    4.7045  -20.9811 H   0  0  0  0  0  0  0  0  0  0  0  0
 31 32  1  0  0  0
 32 30  1  0  0  0
 30 29  1  0  0  0
 29  1  1  0  0  0
  1  2  1  0  0  0
  3  2  1  0  0  0
  3  4  1  0  0  0
  4  5  2  0  0  0
  4  6  1  0  0  0
  6 19  1  0  0  0
 19 20  2  0  0  0
 20 21  1  0  0  0
 21 22  2  0  0  0
 22 23  1  0  0  0
 23 24  2  0  0  0
 24 25  1  0  0  0
 25 26  2  0  0  0
 26 27  1  0  0  0
 27 28  2  0  0  0
  6  7  1  0  0  0
  7  8  1  0  0  0
  8  9  1  0  0  0
  3 10  1  0  0  0
 10 11  2  0  0  0
 11 12  1  0  0  0
 12 13  1  0  0  0
 12 14  2  0  0  0
 14 15  1  0  0  0
 15 16  2  0  0  0
 16 17  1  0  0  0
 17 18  2  0  0  0
 17  1  1  0  0  0
  8  3  1  0  0  0
 16 10  1  0  0  0
 28 19  1  0  0  0
 28 23  1  0  0  0
 32 33  1  0  0  0
 32 34  1  0  0  0
M  CHG 1  32   1
M  END
> <minimizedAffinity>
-6.84822

> <CNNscore>
0.3407687545

> <CNNaffinity>
5.7354440689

> <CNN_VS>
1.9544601440

> <CNNaffinity_variance>
0.2391913682

$$$$



 34 38  0  0  0  0  0  0  0  0999 V2000
  -11.6003    3.8475  -24.0642 N   0  0  0  0  0  0  0  0  0  0  0  0
  -10.2161    3.2796  -23.9567 C   0  0  0  0  0  0  0  0  0  0  0  0
  -10.0246    1.8190  -23.6741 C   0  0  0  0  0  0  0  0  0  0  0  0
   -9.6786    0.3859  -23.3971 C   0  0  0  0  0  0  0  0  0  0  0  0
  -10.2239   -0.6799  -23.1897 O   0  0  0  0  0  0  0  0  0  0  0  0
   -8.1836    0.2657  -23.3765 N   0  0  0  0  0  0  0  0  0  0  0  0
   -7.6056    1.6244  -23.6407 C   0  0  0  0  0  0  0  0  0  0  0  0
   -8.7434    2.5843  -23.8246 C   0  0  0  0  0  0  0  0  0  0  0  0
   -8.6214    4.0520  -24.1091 C   0  0  0  0  0  0  0  0  0  0  0  0
  -11.2173    0.9262  -23.4990 C   0  0  0  0  0  0  0  0  0  0  0  0
  -11.0258   -0.5344  -23.2164 C   0  0  0  0  0  0  0  0  0  0  0  0
  -12.2184   -1.4271  -23.0414 C   0  0  0  0  0  0  0  0  0  0  0  0
  -12.0269   -2.8878  -22.7588 F   0  0  0  0  0  0  0  0  0  0  0  0
  -13.6026   -0.8591  -23.1489 C   0  0  0  0  0  0  0  0  0  0  0  0
  -13.7941    0.6015  -23.4315 C   0  0  0  0  0  0  0  0  0  0  0  0
  -12.6015    1.4941  -23.6066 C   0  0  0  0  0  0  0  0  0  0  0  0
  -12.7929    2.9548  -23.8892 C   0  0  0  0  0  0  0  0  0  0  0  0
  -14.1771    3.5228  -23.9967 O   0  0  0  0  0  0  0  0  0  0  0  0
   -7.4036   -0.9925  -23.1341 C   0  0  0  0  0  0  0  0  0  0  0  0
   -7.1659   -1.9560  -24.2590 C   0  0  0  0  0  0  0  0  0  0  0  0
   -6.3859   -3.2141  -24.0166 N   0  0  0  0  0  0  0  0  0  0  0  0
   -5.8435   -3.5087  -22.6495 C   0  0  0  0  0  0  0  0  0  0  0  0
   -6.0812   -2.5451  -21.5247 C   0  0  0  0  0  0  0  0  0  0  0  0
   -5.5388   -2.8398  -20.1575 C   0  0  0  0  0  0  0  0  0  0  0  0
   -5.7766   -1.8762  -19.0328 C   0  0  0  0  0  0  0  0  0  0  0  0
   -6.5566   -0.6181  -19.2751 C   0  0  0  0  0  0  0  0  0  0  0  0
   -7.0989   -0.3235  -20.6422 C   0  0  0  0  0  0  0  0  0  0  0  0
   -6.8612   -1.2870  -21.7670 C   0  0  0  0  0  0  0  0  0  0  0  0
  -11.7918    5.3082  -24.3468 C   0  0  0  0  0  0  0  0  0  0  0  0
  -13.1402    5.9379  -24.1594 C   0  0  0  0  0  0  0  0  0  0  0  0
  -13.5999    5.8310  -26.7142 C   0  0  0  0  0  0  0  0  0  0  0  0
  -13.9426    6.3617  -25.3537 N   0  0  0  0  0  0  0  0  0  0  0  0
  -14.7213    7.0108  -25.2408 H   0  0  0  0  0  0  0  0  0  0  0  0
  -14.1757    6.7226  -24.4286 H   0  0  0  0  0  0  0  0  0  0  0  0
 31 32  1  0  0  0
 32 30  1  0  0  0
 30 29  1  0  0  0
 29  1  1  0  0  0
  1  2  1  0  0  0
  3  2  1  0  0  0
  3  4  1  0  0  0
  4  5  2  0  0  0
  4  6  1  0  0  0
  6 19  1  0  0  0
 19 20  2  0  0  0
 20 21  1  0  0  0
 21 22  2  0  0  0
 22 23  1  0  0  0
 23 24  2  0  0  0
 24 25  1  0  0  0
 25 26  2  0  0  0
 26 27  1  0  0  0
 27 28  2  0  0  0
  6  7  1  0  0  0
  7  8  1  0  0  0
  8  9  1  0  0  0
  3 10  1  0  0  0
 10 11  2  0  0  0
 11 12  1  0  0  0
 12 13  1  0  0  0
 12 14  2  0  0  0
 14 15  1  0  0  0
 15 16  2  0  0  0
 16 17  1  0  0  0
 17 18  2  0  0  0
 17  1  1  0  0  0
  8  3  1  0  0  0
 16 10  1  0  0  0
 28 19  1  0  0  0
 28 23  1  0  0  0
 32 33  1  0  0  0
 32 34  1  0  0  0
M  CHG 1  32   1
M  END
> <minimizedAffinity>
-7.83390

> <CNNscore>
0.2670883536

> <CNNaffinity>
5.9809422493

> <CNN_VS>
1.5974400043

> <CNNaffinity_variance>
0.0942802131

$$$$



 34 38  0  0  0  0  0  0  0  0999 V2000
   -7.6905   -3.7370  -26.1501 N   0  0  0  0  0  0  0  0  0  0  0  0
   -7.1923   -3.8194  -24.7376 C   0  0  0  0  0  0  0  0  0  0  0  0
   -6.9857   -2.5654  -23.9409 C   0  0  0  0  0  0  0  0  0  0  0  0
   -6.7326   -1.4039  -23.0262 C   0  0  0  0  0  0  0  0  0  0  0  0
   -6.8003   -0.1907  -23.0215 O   0  0  0  0  0  0  0  0  0  0  0  0
   -6.2437   -1.9443  -21.7151 N   0  0  0  0  0  0  0  0  0  0  0  0
   -6.1947   -3.4399  -21.8195 C   0  0  0  0  0  0  0  0  0  0  0  0
   -6.6533   -3.8237  -23.1952 C   0  0  0  0  0  0  0  0  0  0  0  0
   -6.7606   -5.2206  -23.7310 C   0  0  0  0  0  0  0  0  0  0  0  0
   -7.2773   -1.2290  -24.5567 C   0  0  0  0  0  0  0  0  0  0  0  0
   -7.0706    0.0250  -23.7600 C   0  0  0  0  0  0  0  0  0  0  0  0
   -7.3622    1.3613  -24.3758 C   0  0  0  0  0  0  0  0  0  0  0  0
   -7.1556    2.6154  -23.5791 F   0  0  0  0  0  0  0  0  0  0  0  0
   -7.8603    1.4437  -25.7883 C   0  0  0  0  0  0  0  0  0  0  0  0
   -8.0669    0.1897  -26.5850 C   0  0  0  0  0  0  0  0  0  0  0  0
   -7.7754   -1.1466  -25.9692 C   0  0  0  0  0  0  0  0  0  0  0  0
   -7.9820   -2.4007  -26.7659 C   0  0  0  0  0  0  0  0  0  0  0  0
   -8.4801   -2.3184  -28.1784 O   0  0  0  0  0  0  0  0  0  0  0  0
   -5.8696   -1.1318  -20.5110 C   0  0  0  0  0  0  0  0  0  0  0  0
   -6.6594   -1.2632  -19.2425 C   0  0  0  0  0  0  0  0  0  0  0  0
   -6.2853   -0.4507  -18.0384 N   0  0  0  0  0  0  0  0  0  0  0  0
   -5.1213    0.4931  -18.1028 C   0  0  0  0  0  0  0  0  0  0  0  0
   -4.3314    0.6245  -19.3712 C   0  0  0  0  0  0  0  0  0  0  0  0
   -3.1673    1.5685  -19.4355 C   0  0  0  0  0  0  0  0  0  0  0  0
   -2.3775    1.6998  -20.7040 C   0  0  0  0  0  0  0  0  0  0  0  0
   -2.7517    0.8873  -21.9081 C   0  0  0  0  0  0  0  0  0  0  0  0
   -3.9157   -0.0566  -21.8437 C   0  0  0  0  0  0  0  0  0  0  0  0
   -4.7056   -0.1880  -20.5753 C   0  0  0  0  0  0  0  0  0  0  0  0
   -7.8971   -4.9911  -26.9468 C   0  0  0  0  0  0  0  0  0  0  0  0
   -6.7138   -5.7609  -27.4540 C   0  0  0  0  0  0  0  0  0  0  0  0
   -5.1208   -7.6141  -26.5718 C   0  0  0  0  0  0  0  0  0  0  0  0
   -6.4884   -7.1734  -27.0024 N   0  0  0  0  0  0  0  0  0  0  0  0
   -7.2652   -7.8344  -26.9881 H   0  0  0  0  0  0  0  0  0  0  0  0
   -7.4184   -6.8738  -27.2952 H   0  0  0  0  0  0  0  0  0  0  0  0
 31 32  1  0  0  0
 32 30  1  0  0  0
 30 29  1  0  0  0
 29  1  1  0  0  0
  1  2  1  0  0  0
  3  2  1  0  0  0
  3  4  1  0  0  0
  4  5  2  0  0  0
  4  6  1  0  0  0
  6 19  1  0  0  0
 19 20  2  0  0  0
 20 21  1  0  0  0
 21 22  2  0  0  0
 22 23  1  0  0  0
 23 24  2  0  0  0
 24 25  1  0  0  0
 25 26  2  0  0  0
 26 27  1  0  0  0
 27 28  2  0  0  0
  6  7  1  0  0  0
  7  8  1  0  0  0
  8  9  1  0  0  0
  3 10  1  0  0  0
 10 11  2  0  0  0
 11 12  1  0  0  0
 12 13  1  0  0  0
 12 14  2  0  0  0
 14 15  1  0  0  0
 15 16  2  0  0  0
 16 17  1  0  0  0
 17 18  2  0  0  0
 17  1  1  0  0  0
  8  3  1  0  0  0
 16 10  1  0  0  0
 28 19  1  0  0  0
 28 23  1  0  0  0
 32 33  1  0  0  0
 32 34  1  0  0  0
M  CHG 1  32   1
M  END
> <minimizedAffinity>
-7.34085

> <CNNscore>
0.2571103573

> <CNNaffinity>
5.8928465843

> <CNN_VS>
1.5151119232

> <CNNaffinity_variance>
0.0778105110

$$$$
