


 34 39  0  0  0  0  0  0  0  0999 V2000
   10.7124    0.4405   23.1699 N   0  0  0  0  0  0  0  0  0  0  0  0
    9.4616    0.2984   22.3542 C   0  0  0  0  0  0  0  0  0  0  0  0
    8.5663   -0.8882   22.5546 C   0  0  0  0  0  0  0  0  0  0  0  0
    7.5789   -2.0139   22.6433 C   0  0  0  0  0  0  0  0  0  0  0  0
    6.4857   -1.7510   21.6505 C   0  0  0  0  0  0  0  0  0  0  0  0
    6.7974   -0.4628   20.9482 N   0  0  0  0  0  0  0  0  0  0  0  0
    8.0833    0.0704   21.5070 C   0  0  0  0  0  0  0  0  0  0  0  0
    8.7662    1.3395   21.0910 O   0  0  0  0  0  0  0  0  0  0  0  0
    8.9217   -1.9329   23.5707 C   0  0  0  0  0  0  0  0  0  0  0  0
    8.0264   -3.1196   23.7711 C   0  0  0  0  0  0  0  0  0  0  0  0
    8.3819   -4.1642   24.7872 C   0  0  0  0  0  0  0  0  0  0  0  0
    7.4865   -5.3509   24.9876 Cl  0  0  0  0  0  0  0  0  0  0  0  0
    9.6327   -4.0221   25.6029 C   0  0  0  0  0  0  0  0  0  0  0  0
   10.5280   -2.8354   25.4025 C   0  0  0  0  0  0  0  0  0  0  0  0
   10.1725   -1.7908   24.3864 C   0  0  0  0  0  0  0  0  0  0  0  0
   11.0679   -0.6041   24.1860 C   0  0  0  0  0  0  0  0  0  0  0  0
   12.3187   -0.4620   25.0017 O   0  0  0  0  0  0  0  0  0  0  0  0
    5.9687    0.1795   19.8755 C   0  0  0  0  0  0  0  0  0  0  0  0
    6.4023    0.0963   18.4420 C   0  0  0  0  0  0  0  0  0  0  0  0
    5.5736    0.7386   17.3693 N   0  0  0  0  0  0  0  0  0  0  0  0
    4.3113    1.4641   17.7301 C   0  0  0  0  0  0  0  0  0  0  0  0
    3.8777    1.5473   19.1637 C   0  0  0  0  0  0  0  0  0  0  0  0
    2.6153    2.2729   19.5245 C   0  0  0  0  0  0  0  0  0  0  0  0
    2.1818    2.3560   20.9581 C   0  0  0  0  0  0  0  0  0  0  0  0
    3.0105    1.7137   22.0307 C   0  0  0  0  0  0  0  0  0  0  0  0
    4.2728    0.9882   21.6699 C   0  0  0  0  0  0  0  0  0  0  0  0
    4.7064    0.9050   20.2364 C   0  0  0  0  0  0  0  0  0  0  0  0
   11.6078    1.6272   22.9695 C   0  0  0  0  0  0  0  0  0  0  0  0
   11.0894    6.8467   22.3615 C   0  0  0  0  0  0  0  0  0  0  0  0
   10.7878    5.4087   22.6639 N   0  0  0  0  0  0  0  0  0  0  0  0
    9.4742    4.8651   23.1424 C   0  0  0  0  0  0  0  0  0  0  0  0
    9.6215    3.3824   23.3151 C   0  0  0  0  0  0  0  0  0  0  0  0
   11.0261    3.0096   22.9434 C   0  0  0  0  0  0  0  0  0  0  0  0
   11.7470    4.2620   22.5409 N   0  0  0  0  0  0  0  0  0  0  0  0
 29 30  1  0  0  0
 30 31  1  0  0  0
 31 32  2  0  0  0
 32 33  1  0  0  0
 33 28  1  0  0  0
 28  1  1  0  0  0
  1  2  1  0  0  0
  3  2  1  0  0  0
  3  4  1  0  0  0
  4  5  1  0  0  0
  5  6  1  0  0  0
  6 18  1  0  0  0
 18 19  2  0  0  0
 19 20  1  0  0  0
 20 21  2  0  0  0
 21 22  1  0  0  0
 22 23  2  0  0  0
 23 24  1  0  0  0
 24 25  2  0  0  0
 25 26  1  0  0  0
 26 27  2  0  0  0
  6  7  1  0  0  0
  7  8  2  0  0  0
  3  9  1  0  0  0
  9 10  2  0  0  0
 10 11  1  0  0  0
 11 12  1  0  0  0
 11 13  2  0  0  0
 13 14  1  0  0  0
 14 15  2  0  0  0
 15 16  1  0  0  0
 16 17  2  0  0  0
 33 34  2  0  0  0
 34 30  1  0  0  0
 16  1  1  0  0  0
  7  3  1  0  0  0
 15  9  1  0  0  0
 27 18  1  0  0  0
 27 22  1  0  0  0
M  END
> <minimizedAffinity>
-9.10243

> <CNNscore>
0.5910884738

> <CNNaffinity>
6.8454680443

> <CNN_VS>
4.0462770462

> <CNNaffinity_variance>
0.0526679233

$$$$



 34 39  0  0  0  0  0  0  0  0999 V2000
    8.2353    0.2252   23.2517 N   0  0  0  0  0  0  0  0  0  0  0  0
    7.6955   -0.8801   24.1102 C   0  0  0  0  0  0  0  0  0  0  0  0
    8.6336   -1.7358   24.9088 C   0  0  0  0  0  0  0  0  0  0  0  0
    9.4447   -2.6685   25.7585 C   0  0  0  0  0  0  0  0  0  0  0  0
    8.5004   -3.6116   26.4431 C   0  0  0  0  0  0  0  0  0  0  0  0
    7.1055   -3.2618   26.0166 N   0  0  0  0  0  0  0  0  0  0  0  0
    7.1878   -2.1024   25.0683 C   0  0  0  0  0  0  0  0  0  0  0  0
    6.0280   -1.4281   24.3973 O   0  0  0  0  0  0  0  0  0  0  0  0
   10.1115   -1.4861   24.8490 C   0  0  0  0  0  0  0  0  0  0  0  0
   11.0495   -2.3417   25.6477 C   0  0  0  0  0  0  0  0  0  0  0  0
   12.5274   -2.0921   25.5878 C   0  0  0  0  0  0  0  0  0  0  0  0
   13.4655   -2.9477   26.3865 Cl  0  0  0  0  0  0  0  0  0  0  0  0
   13.0671   -0.9867   24.7294 C   0  0  0  0  0  0  0  0  0  0  0  0
   12.1291   -0.1311   23.9308 C   0  0  0  0  0  0  0  0  0  0  0  0
   10.6512   -0.3808   23.9906 C   0  0  0  0  0  0  0  0  0  0  0  0
    9.7131    0.4749   23.1919 C   0  0  0  0  0  0  0  0  0  0  0  0
   10.2528    1.5802   22.3335 O   0  0  0  0  0  0  0  0  0  0  0  0
    5.8489   -3.9503   26.4603 C   0  0  0  0  0  0  0  0  0  0  0  0
    5.1419   -4.8924   25.5316 C   0  0  0  0  0  0  0  0  0  0  0  0
    3.8853   -5.5809   25.9753 N   0  0  0  0  0  0  0  0  0  0  0  0
    3.3358   -5.3274   27.3478 C   0  0  0  0  0  0  0  0  0  0  0  0
    4.0429   -4.3853   28.2766 C   0  0  0  0  0  0  0  0  0  0  0  0
    3.4933   -4.1317   29.6491 C   0  0  0  0  0  0  0  0  0  0  0  0
    4.2005   -3.1896   30.5778 C   0  0  0  0  0  0  0  0  0  0  0  0
    5.4570   -2.5011   30.1340 C   0  0  0  0  0  0  0  0  0  0  0  0
    6.0065   -2.7547   28.7615 C   0  0  0  0  0  0  0  0  0  0  0  0
    5.2995   -3.6967   27.8328 C   0  0  0  0  0  0  0  0  0  0  0  0
    7.2971    1.0809   22.4531 C   0  0  0  0  0  0  0  0  0  0  0  0
    6.1704    6.2285   22.1164 C   0  0  0  0  0  0  0  0  0  0  0  0
    6.6008    4.8943   22.6498 N   0  0  0  0  0  0  0  0  0  0  0  0
    7.0875    4.6163   24.0412 C   0  0  0  0  0  0  0  0  0  0  0  0
    7.4076    3.1540   24.1368 C   0  0  0  0  0  0  0  0  0  0  0  0
    7.1187    2.5281   22.8046 C   0  0  0  0  0  0  0  0  0  0  0  0
    6.6201    3.6037   21.8855 N   0  0  0  0  0  0  0  0  0  0  0  0
 29 30  1  0  0  0
 30 31  1  0  0  0
 31 32  2  0  0  0
 32 33  1  0  0  0
 33 28  1  0  0  0
 28  1  1  0  0  0
  1  2  1  0  0  0
  3  2  1  0  0  0
  3  4  1  0  0  0
  4  5  1  0  0  0
  5  6  1  0  0  0
  6 18  1  0  0  0
 18 19  2  0  0  0
 19 20  1  0  0  0
 20 21  2  0  0  0
 21 22  1  0  0  0
 22 23  2  0  0  0
 23 24  1  0  0  0
 24 25  2  0  0  0
 25 26  1  0  0  0
 26 27  2  0  0  0
  6  7  1  0  0  0
  7  8  2  0  0  0
  3  9  1  0  0  0
  9 10  2  0  0  0
 10 11  1  0  0  0
 11 12  1  0  0  0
 11 13  2  0  0  0
 13 14  1  0  0  0
 14 15  2  0  0  0
 15 16  1  0  0  0
 16 17  2  0  0  0
 33 34  2  0  0  0
 34 30  1  0  0  0
 16  1  1  0  0  0
  7  3  1  0  0  0
 15  9  1  0  0  0
 27 18  1  0  0  0
 27 22  1  0  0  0
M  END
> <minimizedAffinity>
-7.48934

> <CNNscore>
0.5445804000

> <CNNaffinity>
6.7140245438

> <CNN_VS>
3.6563260555

> <CNNaffinity_variance>
0.3100061715

$$$$



 34 39  0  0  0  0  0  0  0  0999 V2000
    8.3300    0.4115   23.4147 N   0  0  0  0  0  0  0  0  0  0  0  0
    7.7278   -0.6775   24.2523 C   0  0  0  0  0  0  0  0  0  0  0  0
    8.6156   -1.6043   25.0287 C   0  0  0  0  0  0  0  0  0  0  0  0
    9.3722   -2.6015   25.8551 C   0  0  0  0  0  0  0  0  0  0  0  0
    8.3753   -3.5009   26.5241 C   0  0  0  0  0  0  0  0  0  0  0  0
    7.0025   -3.0594   26.1111 N   0  0  0  0  0  0  0  0  0  0  0  0
    7.1510   -1.8873   25.1869 C   0  0  0  0  0  0  0  0  0  0  0  0
    6.0315   -1.1310   24.5353 O   0  0  0  0  0  0  0  0  0  0  0  0
   10.1056   -1.4421   24.9676 C   0  0  0  0  0  0  0  0  0  0  0  0
   10.9933   -2.3689   25.7441 C   0  0  0  0  0  0  0  0  0  0  0  0
   12.4833   -2.2066   25.6830 C   0  0  0  0  0  0  0  0  0  0  0  0
   13.3711   -3.1335   26.4594 Cl  0  0  0  0  0  0  0  0  0  0  0  0
   13.0854   -1.1176   24.8454 C   0  0  0  0  0  0  0  0  0  0  0  0
   12.1976   -0.1908   24.0690 C   0  0  0  0  0  0  0  0  0  0  0  0
   10.7077   -0.3531   24.1301 C   0  0  0  0  0  0  0  0  0  0  0  0
    9.8199    0.5737   23.3536 C   0  0  0  0  0  0  0  0  0  0  0  0
   10.4220    1.6628   22.5161 O   0  0  0  0  0  0  0  0  0  0  0  0
    5.7085   -3.6810   26.5458 C   0  0  0  0  0  0  0  0  0  0  0  0
    4.9241   -4.5279   25.5881 C   0  0  0  0  0  0  0  0  0  0  0  0
    3.6301   -5.1494   26.0229 N   0  0  0  0  0  0  0  0  0  0  0  0
    3.1204   -4.9240   27.4155 C   0  0  0  0  0  0  0  0  0  0  0  0
    3.9048   -4.0771   28.3733 C   0  0  0  0  0  0  0  0  0  0  0  0
    3.3951   -3.8517   29.7660 C   0  0  0  0  0  0  0  0  0  0  0  0
    4.1796   -3.0047   30.7238 C   0  0  0  0  0  0  0  0  0  0  0  0
    5.4736   -2.3832   30.2889 C   0  0  0  0  0  0  0  0  0  0  0  0
    5.9832   -2.6086   28.8963 C   0  0  0  0  0  0  0  0  0  0  0  0
    5.1989   -3.4555   27.9385 C   0  0  0  0  0  0  0  0  0  0  0  0
    7.4421    1.3383   22.6383 C   0  0  0  0  0  0  0  0  0  0  0  0
    4.5536    1.1024   18.2244 C   0  0  0  0  0  0  0  0  0  0  0  0
    5.6023    0.8224   19.2597 N   0  0  0  0  0  0  0  0  0  0  0  0
    6.6815   -0.2149   19.1634 C   0  0  0  0  0  0  0  0  0  0  0  0
    7.5021   -0.1479   20.4173 C   0  0  0  0  0  0  0  0  0  0  0  0
    6.9300    0.9308   21.2886 C   0  0  0  0  0  0  0  0  0  0  0  0
    5.7558    1.5305   20.5732 N   0  0  0  0  0  0  0  0  0  0  0  0
 29 30  1  0  0  0
 30 31  1  0  0  0
 31 32  2  0  0  0
 32 33  1  0  0  0
 33 28  1  0  0  0
 28  1  1  0  0  0
  1  2  1  0  0  0
  3  2  1  0  0  0
  3  4  1  0  0  0
  4  5  1  0  0  0
  5  6  1  0  0  0
  6 18  1  0  0  0
 18 19  2  0  0  0
 19 20  1  0  0  0
 20 21  2  0  0  0
 21 22  1  0  0  0
 22 23  2  0  0  0
 23 24  1  0  0  0
 24 25  2  0  0  0
 25 26  1  0  0  0
 26 27  2  0  0  0
  6  7  1  0  0  0
  7  8  2  0  0  0
  3  9  1  0  0  0
  9 10  2  0  0  0
 10 11  1  0  0  0
 11 12  1  0  0  0
 11 13  2  0  0  0
 13 14  1  0  0  0
 14 15  2  0  0  0
 15 16  1  0  0  0
 16 17  2  0  0  0
 33 34  2  0  0  0
 34 30  1  0  0  0
 16  1  1  0  0  0
  7  3  1  0  0  0
 15  9  1  0  0  0
 27 18  1  0  0  0
 27 22  1  0  0  0
M  END
> <minimizedAffinity>
-8.54453

> <CNNscore>
0.3217163682

> <CNNaffinity>
6.3635363579

> <CNN_VS>
2.0472538471

> <CNNaffinity_variance>
0.1319455206

$$$$



 34 39  0  0  0  0  0  0  0  0999 V2000
    7.3999   -0.2189   21.8928 N   0  0  0  0  0  0  0  0  0  0  0  0
    7.2719   -1.5049   22.6544 C   0  0  0  0  0  0  0  0  0  0  0  0
    8.4137   -1.9962   23.4939 C   0  0  0  0  0  0  0  0  0  0  0  0
    9.4649   -2.6104   24.3701 C   0  0  0  0  0  0  0  0  0  0  0  0
    8.9129   -3.8875   24.9307 C   0  0  0  0  0  0  0  0  0  0  0  0
    7.5206   -4.0627   24.4009 N   0  0  0  0  0  0  0  0  0  0  0  0
    7.2121   -2.8938   23.5129 C   0  0  0  0  0  0  0  0  0  0  0  0
    5.9274   -2.6630   22.7738 O   0  0  0  0  0  0  0  0  0  0  0  0
    9.6836   -1.2015   23.5720 C   0  0  0  0  0  0  0  0  0  0  0  0
   10.8253   -1.6928   24.4115 C   0  0  0  0  0  0  0  0  0  0  0  0
   12.0951   -0.8981   24.4896 C   0  0  0  0  0  0  0  0  0  0  0  0
   13.2370   -1.3894   25.3292 Cl  0  0  0  0  0  0  0  0  0  0  0  0
   12.2231    0.3878   23.7280 C   0  0  0  0  0  0  0  0  0  0  0  0
   11.0813    0.8791   22.8885 C   0  0  0  0  0  0  0  0  0  0  0  0
    9.8116    0.0845   22.8105 C   0  0  0  0  0  0  0  0  0  0  0  0
    8.6697    0.5757   21.9709 C   0  0  0  0  0  0  0  0  0  0  0  0
    8.7977    1.8617   21.2093 O   0  0  0  0  0  0  0  0  0  0  0  0
    6.5986   -5.2060   24.7056 C   0  0  0  0  0  0  0  0  0  0  0  0
    6.9239   -6.5841   24.2108 C   0  0  0  0  0  0  0  0  0  0  0  0
    6.0019   -7.7274   24.5155 N   0  0  0  0  0  0  0  0  0  0  0  0
    4.7546   -7.4925   25.3150 C   0  0  0  0  0  0  0  0  0  0  0  0
    4.4294   -6.1143   25.8098 C   0  0  0  0  0  0  0  0  0  0  0  0
    3.1820   -5.8794   26.6093 C   0  0  0  0  0  0  0  0  0  0  0  0
    2.8569   -4.5012   27.1040 C   0  0  0  0  0  0  0  0  0  0  0  0
    3.7788   -3.3580   26.7993 C   0  0  0  0  0  0  0  0  0  0  0  0
    5.0261   -3.5929   25.9999 C   0  0  0  0  0  0  0  0  0  0  0  0
    5.3513   -4.9710   25.5051 C   0  0  0  0  0  0  0  0  0  0  0  0
    6.2580    0.2724   21.0532 C   0  0  0  0  0  0  0  0  0  0  0  0
    3.7822    3.6060   24.3149 C   0  0  0  0  0  0  0  0  0  0  0  0
    4.0837    2.7090   23.1511 N   0  0  0  0  0  0  0  0  0  0  0  0
    3.1703    2.4275   21.9950 C   0  0  0  0  0  0  0  0  0  0  0  0
    3.8736    1.4805   21.0685 C   0  0  0  0  0  0  0  0  0  0  0  0
    5.2217    1.1766   21.6518 C   0  0  0  0  0  0  0  0  0  0  0  0
    5.3516    1.9359   22.9390 N   0  0  0  0  0  0  0  0  0  0  0  0
 29 30  1  0  0  0
 30 31  1  0  0  0
 31 32  2  0  0  0
 32 33  1  0  0  0
 33 28  1  0  0  0
 28  1  1  0  0  0
  1  2  1  0  0  0
  3  2  1  0  0  0
  3  4  1  0  0  0
  4  5  1  0  0  0
  5  6  1  0  0  0
  6 18  1  0  0  0
 18 19  2  0  0  0
 19 20  1  0  0  0
 20 21  2  0  0  0
 21 22  1  0  0  0
 22 23  2  0  0  0
 23 24  1  0  0  0
 24 25  2  0  0  0
 25 26  1  0  0  0
 26 27  2  0  0  0
  6  7  1  0  0  0
  7  8  2  0  0  0
  3  9  1  0  0  0
  9 10  2  0  0  0
 10 11  1  0  0  0
 11 12  1  0  0  0
 11 13  2  0  0  0
 13 14  1  0  0  0
 14 15  2  0  0  0
 15 16  1  0  0  0
 16 17  2  0  0  0
 33 34  2  0  0  0
 34 30  1  0  0  0
 16  1  1  0  0  0
  7  3  1  0  0  0
 15  9  1  0  0  0
 27 18  1  0  0  0
 27 22  1  0  0  0
M  END
> <minimizedAffinity>
-8.02745

> <CNNscore>
0.3021837771

> <CNNaffinity>
6.5443038940

> <CNN_VS>
1.9775824547

> <CNNaffinity_variance>
0.2267670631

$$$$



 34 39  0  0  0  0  0  0  0  0999 V2000
   10.9253   -0.0957   23.1212 N   0  0  0  0  0  0  0  0  0  0  0  0
    9.5378    0.3642   23.4579 C   0  0  0  0  0  0  0  0  0  0  0  0
    9.2026    1.8257   23.4217 C   0  0  0  0  0  0  0  0  0  0  0  0
    8.7220    3.2466   23.4286 C   0  0  0  0  0  0  0  0  0  0  0  0
    7.2744    3.2445   23.8218 C   0  0  0  0  0  0  0  0  0  0  0  0
    6.8604    1.8223   24.0579 N   0  0  0  0  0  0  0  0  0  0  0  0
    8.0520    0.9454   23.8107 C   0  0  0  0  0  0  0  0  0  0  0  0
    8.0870   -0.5493   23.9313 O   0  0  0  0  0  0  0  0  0  0  0  0
   10.2549    2.8276   23.0488 C   0  0  0  0  0  0  0  0  0  0  0  0
    9.9198    4.2892   23.0126 C   0  0  0  0  0  0  0  0  0  0  0  0
   10.9721    5.2909   22.6398 C   0  0  0  0  0  0  0  0  0  0  0  0
   10.6369    6.7526   22.6036 Cl  0  0  0  0  0  0  0  0  0  0  0  0
   12.3596    4.8310   22.3031 C   0  0  0  0  0  0  0  0  0  0  0  0
   12.6948    3.3695   22.3393 C   0  0  0  0  0  0  0  0  0  0  0  0
   11.6424    2.3677   22.7121 C   0  0  0  0  0  0  0  0  0  0  0  0
   11.9776    0.9060   22.7483 C   0  0  0  0  0  0  0  0  0  0  0  0
   13.3651    0.4462   22.4117 O   0  0  0  0  0  0  0  0  0  0  0  0
    5.4945    1.3583   24.4692 C   0  0  0  0  0  0  0  0  0  0  0  0
    4.4269    1.1597   23.4345 C   0  0  0  0  0  0  0  0  0  0  0  0
    3.0610    0.6957   23.8457 N   0  0  0  0  0  0  0  0  0  0  0  0
    2.7628    0.4304   25.2916 C   0  0  0  0  0  0  0  0  0  0  0  0
    3.8305    0.6290   26.3263 C   0  0  0  0  0  0  0  0  0  0  0  0
    3.5323    0.3636   27.7723 C   0  0  0  0  0  0  0  0  0  0  0  0
    4.6001    0.5623   28.8069 C   0  0  0  0  0  0  0  0  0  0  0  0
    5.9659    1.0263   28.3957 C   0  0  0  0  0  0  0  0  0  0  0  0
    6.2640    1.2916   26.9498 C   0  0  0  0  0  0  0  0  0  0  0  0
    5.1964    1.0930   25.9151 C   0  0  0  0  0  0  0  0  0  0  0  0
   11.2604   -1.5574   23.1574 C   0  0  0  0  0  0  0  0  0  0  0  0
   10.8319   -4.5038   27.5182 C   0  0  0  0  0  0  0  0  0  0  0  0
   11.3734   -3.5779   26.4696 N   0  0  0  0  0  0  0  0  0  0  0  0
   12.7212   -2.9197   26.4855 C   0  0  0  0  0  0  0  0  0  0  0  0
   12.8429   -2.0827   25.2467 C   0  0  0  0  0  0  0  0  0  0  0  0
   11.5704   -2.2236   24.4651 C   0  0  0  0  0  0  0  0  0  0  0  0
   10.6621   -3.1477   25.2209 N   0  0  0  0  0  0  0  0  0  0  0  0
 29 30  1  0  0  0
 30 31  1  0  0  0
 31 32  2  0  0  0
 32 33  1  0  0  0
 33 28  1  0  0  0
 28  1  1  0  0  0
  1  2  1  0  0  0
  3  2  1  0  0  0
  3  4  1  0  0  0
  4  5  1  0  0  0
  5  6  1  0  0  0
  6 18  1  0  0  0
 18 19  2  0  0  0
 19 20  1  0  0  0
 20 21  2  0  0  0
 21 22  1  0  0  0
 22 23  2  0  0  0
 23 24  1  0  0  0
 24 25  2  0  0  0
 25 26  1  0  0  0
 26 27  2  0  0  0
  6  7  1  0  0  0
  7  8  2  0  0  0
  3  9  1  0  0  0
  9 10  2  0  0  0
 10 11  1  0  0  0
 11 12  1  0  0  0
 11 13  2  0  0  0
 13 14  1  0  0  0
 14 15  2  0  0  0
 15 16  1  0  0  0
 16 17  2  0  0  0
 33 34  2  0  0  0
 34 30  1  0  0  0
 16  1  1  0  0  0
  7  3  1  0  0  0
 15  9  1  0  0  0
 27 18  1  0  0  0
 27 22  1  0  0  0
M  END
> <minimizedAffinity>
-7.77689

> <CNNscore>
0.2808452845

> <CNNaffinity>
6.3753786087

> <CNN_VS>
1.7904950380

> <CNNaffinity_variance>
0.0586423390

$$$$



 34 39  0  0  0  0  0  0  0  0999 V2000
    9.5894   -2.0963   24.1432 N   0  0  0  0  0  0  0  0  0  0  0  0
    8.4695   -1.6266   23.2627 C   0  0  0  0  0  0  0  0  0  0  0  0
    7.0541   -1.6813   23.7562 C   0  0  0  0  0  0  0  0  0  0  0  0
    5.5966   -1.6758   24.1109 C   0  0  0  0  0  0  0  0  0  0  0  0
    4.8367   -1.1257   22.9404 C   0  0  0  0  0  0  0  0  0  0  0  0
    5.8246   -0.7913   21.8623 N   0  0  0  0  0  0  0  0  0  0  0  0
    7.1949   -1.1347   22.3665 C   0  0  0  0  0  0  0  0  0  0  0  0
    8.4805   -0.9618   21.6131 O   0  0  0  0  0  0  0  0  0  0  0  0
    6.7585   -2.2058   25.1301 C   0  0  0  0  0  0  0  0  0  0  0  0
    5.3431   -2.2606   25.6236 C   0  0  0  0  0  0  0  0  0  0  0  0
    5.0476   -2.7851   26.9974 C   0  0  0  0  0  0  0  0  0  0  0  0
    3.6321   -2.8399   27.4909 Cl  0  0  0  0  0  0  0  0  0  0  0  0
    6.1675   -3.2548   27.8778 C   0  0  0  0  0  0  0  0  0  0  0  0
    7.5829   -3.2001   27.3844 C   0  0  0  0  0  0  0  0  0  0  0  0
    7.8784   -2.6756   26.0105 C   0  0  0  0  0  0  0  0  0  0  0  0
    9.2939   -2.6208   25.5170 C   0  0  0  0  0  0  0  0  0  0  0  0
   10.4138   -3.0905   26.3974 O   0  0  0  0  0  0  0  0  0  0  0  0
    5.4992   -0.2147   20.5163 C   0  0  0  0  0  0  0  0  0  0  0  0
    6.2271   -0.6984   19.2973 C   0  0  0  0  0  0  0  0  0  0  0  0
    5.9018   -0.1218   17.9513 N   0  0  0  0  0  0  0  0  0  0  0  0
    4.8484    0.9385   17.8244 C   0  0  0  0  0  0  0  0  0  0  0  0
    4.1205    1.4223   19.0435 C   0  0  0  0  0  0  0  0  0  0  0  0
    3.0671    2.4827   18.9165 C   0  0  0  0  0  0  0  0  0  0  0  0
    2.3392    2.9664   20.1356 C   0  0  0  0  0  0  0  0  0  0  0  0
    2.6646    2.3897   21.4815 C   0  0  0  0  0  0  0  0  0  0  0  0
    3.7179    1.3294   21.6084 C   0  0  0  0  0  0  0  0  0  0  0  0
    4.4458    0.8457   20.3895 C   0  0  0  0  0  0  0  0  0  0  0  0
   11.0049   -2.0415   23.6496 C   0  0  0  0  0  0  0  0  0  0  0  0
   11.7632    3.1471   23.0301 C   0  0  0  0  0  0  0  0  0  0  0  0
   11.9720    1.6619   23.0056 N   0  0  0  0  0  0  0  0  0  0  0  0
   13.1784    0.9499   22.4694 C   0  0  0  0  0  0  0  0  0  0  0  0
   12.9629   -0.5241   22.6454 C   0  0  0  0  0  0  0  0  0  0  0  0
   11.6234   -0.7231   23.2904 C   0  0  0  0  0  0  0  0  0  0  0  0
   11.0109    0.6280   23.5130 N   0  0  0  0  0  0  0  0  0  0  0  0
 29 30  1  0  0  0
 30 31  1  0  0  0
 31 32  2  0  0  0
 32 33  1  0  0  0
 33 28  1  0  0  0
 28  1  1  0  0  0
  1  2  1  0  0  0
  3  2  1  0  0  0
  3  4  1  0  0  0
  4  5  1  0  0  0
  5  6  1  0  0  0
  6 18  1  0  0  0
 18 19  2  0  0  0
 19 20  1  0  0  0
 20 21  2  0  0  0
 21 22  1  0  0  0
 22 23  2  0  0  0
 23 24  1  0  0  0
 24 25  2  0  0  0
 25 26  1  0  0  0
 26 27  2  0  0  0
  6  7  1  0  0  0
  7  8  2  0  0  0
  3  9  1  0  0  0
  9 10  2  0  0  0
 10 11  1  0  0  0
 11 12  1  0  0  0
 11 13  2  0  0  0
 13 14  1  0  0  0
 14 15  2  0  0  0
 15 16  1  0  0  0
 16 17  2  0  0  0
 33 34  2  0  0  0
 34 30  1  0  0  0
 16  1  1  0  0  0
  7  3  1  0  0  0
 15  9  1  0  0  0
 27 18  1  0  0  0
 27 22  1  0  0  0
M  END
> <minimizedAffinity>
-8.23396

> <CNNscore>
0.2784666717

> <CNNaffinity>
6.5180068016

> <CNN_VS>
1.8150476217

> <CNNaffinity_variance>
0.0449007675

$$$$



 34 39  0  0  0  0  0  0  0  0999 V2000
    5.0706    0.9989   24.6456 N   0  0  0  0  0  0  0  0  0  0  0  0
    6.4697    0.5385   24.3621 C   0  0  0  0  0  0  0  0  0  0  0  0
    6.9215    0.3402   22.9456 C   0  0  0  0  0  0  0  0  0  0  0  0
    7.5124    0.0993   21.5881 C   0  0  0  0  0  0  0  0  0  0  0  0
    8.9315   -0.3499   21.7733 C   0  0  0  0  0  0  0  0  0  0  0  0
    9.2177   -0.3867   23.2453 N   0  0  0  0  0  0  0  0  0  0  0  0
    7.9754    0.0398   23.9698 C   0  0  0  0  0  0  0  0  0  0  0  0
    7.8153    0.1471   25.4573 O   0  0  0  0  0  0  0  0  0  0  0  0
    5.9741    0.6022   21.8125 C   0  0  0  0  0  0  0  0  0  0  0  0
    6.4258    0.4039   20.3960 C   0  0  0  0  0  0  0  0  0  0  0  0
    5.4784    0.6659   19.2630 C   0  0  0  0  0  0  0  0  0  0  0  0
    5.9302    0.4675   17.8464 Cl  0  0  0  0  0  0  0  0  0  0  0  0
    4.0793    1.1263   19.5465 C   0  0  0  0  0  0  0  0  0  0  0  0
    3.6275    1.3246   20.9630 C   0  0  0  0  0  0  0  0  0  0  0  0
    4.5749    1.0626   22.0960 C   0  0  0  0  0  0  0  0  0  0  0  0
    4.1232    1.2609   23.5126 C   0  0  0  0  0  0  0  0  0  0  0  0
    2.7240    1.7213   23.7961 O   0  0  0  0  0  0  0  0  0  0  0  0
   10.5178   -0.7808   23.8811 C   0  0  0  0  0  0  0  0  0  0  0  0
   11.7353    0.0745   23.6911 C   0  0  0  0  0  0  0  0  0  0  0  0
   13.0354   -0.3196   24.3270 N   0  0  0  0  0  0  0  0  0  0  0  0
   13.1180   -1.5690   25.1529 C   0  0  0  0  0  0  0  0  0  0  0  0
   11.9005   -2.4243   25.3429 C   0  0  0  0  0  0  0  0  0  0  0  0
   11.9832   -3.6738   26.1689 C   0  0  0  0  0  0  0  0  0  0  0  0
   10.7656   -4.5290   26.3589 C   0  0  0  0  0  0  0  0  0  0  0  0
    9.4655   -4.1349   25.7230 C   0  0  0  0  0  0  0  0  0  0  0  0
    9.3829   -2.8855   24.8971 C   0  0  0  0  0  0  0  0  0  0  0  0
   10.6004   -2.0302   24.7071 C   0  0  0  0  0  0  0  0  0  0  0  0
    4.6188    1.1972   26.0622 C   0  0  0  0  0  0  0  0  0  0  0  0
    5.5805   -1.8231   30.2852 C   0  0  0  0  0  0  0  0  0  0  0  0
    5.0639   -1.3463   28.9601 N   0  0  0  0  0  0  0  0  0  0  0  0
    4.1891   -2.1249   28.0229 C   0  0  0  0  0  0  0  0  0  0  0  0
    3.9159   -1.2669   26.8232 C   0  0  0  0  0  0  0  0  0  0  0  0
    4.6218    0.0421   27.0190 C   0  0  0  0  0  0  0  0  0  0  0  0
    5.3314   -0.0070   28.3398 N   0  0  0  0  0  0  0  0  0  0  0  0
 29 30  1  0  0  0
 30 31  1  0  0  0
 31 32  2  0  0  0
 32 33  1  0  0  0
 33 28  1  0  0  0
 28  1  1  0  0  0
  1  2  1  0  0  0
  3  2  1  0  0  0
  3  4  1  0  0  0
  4  5  1  0  0  0
  5  6  1  0  0  0
  6 18  1  0  0  0
 18 19  2  0  0  0
 19 20  1  0  0  0
 20 21  2  0  0  0
 21 22  1  0  0  0
 22 23  2  0  0  0
 23 24  1  0  0  0
 24 25  2  0  0  0
 25 26  1  0  0  0
 26 27  2  0  0  0
  6  7  1  0  0  0
  7  8  2  0  0  0
  3  9  1  0  0  0
  9 10  2  0  0  0
 10 11  1  0  0  0
 11 12  1  0  0  0
 11 13  2  0  0  0
 13 14  1  0  0  0
 14 15  2  0  0  0
 15 16  1  0  0  0
 16 17  2  0  0  0
 33 34  2  0  0  0
 34 30  1  0  0  0
 16  1  1  0  0  0
  7  3  1  0  0  0
 15  9  1  0  0  0
 27 18  1  0  0  0
 27 22  1  0  0  0
M  END
> <minimizedAffinity>
-7.91418

> <CNNscore>
0.2499191463

> <CNNaffinity>
6.3235721588

> <CNN_VS>
1.5803817511

> <CNNaffinity_variance>
0.0942265391

$$$$



 34 39  0  0  0  0  0  0  0  0999 V2000
    7.3395   -3.7789   23.5218 N   0  0  0  0  0  0  0  0  0  0  0  0
    7.0015   -2.6024   22.6549 C   0  0  0  0  0  0  0  0  0  0  0  0
    8.0072   -1.5087   22.4493 C   0  0  0  0  0  0  0  0  0  0  0  0
    8.9059   -0.3450   22.1525 C   0  0  0  0  0  0  0  0  0  0  0  0
    8.1652    0.5936   21.2467 C   0  0  0  0  0  0  0  0  0  0  0  0
    6.8087    0.0099   20.9837 N   0  0  0  0  0  0  0  0  0  0  0  0
    6.7110   -1.2893   21.7269 C   0  0  0  0  0  0  0  0  0  0  0  0
    5.5254   -2.2080   21.7445 O   0  0  0  0  0  0  0  0  0  0  0  0
    9.3510   -1.5915   23.1106 C   0  0  0  0  0  0  0  0  0  0  0  0
   10.3567   -0.4978   22.9050 C   0  0  0  0  0  0  0  0  0  0  0  0
   11.7005   -0.5806   23.5663 C   0  0  0  0  0  0  0  0  0  0  0  0
   12.7063    0.5132   23.3606 Cl  0  0  0  0  0  0  0  0  0  0  0  0
   12.0386   -1.7571   24.4332 C   0  0  0  0  0  0  0  0  0  0  0  0
   11.0329   -2.8508   24.6388 C   0  0  0  0  0  0  0  0  0  0  0  0
    9.6891   -2.7680   23.9775 C   0  0  0  0  0  0  0  0  0  0  0  0
    8.6833   -3.8617   24.1831 C   0  0  0  0  0  0  0  0  0  0  0  0
    9.0214   -5.0382   25.0500 O   0  0  0  0  0  0  0  0  0  0  0  0
    5.7378    0.6186   20.1277 C   0  0  0  0  0  0  0  0  0  0  0  0
    5.7747    0.4384   18.6391 C   0  0  0  0  0  0  0  0  0  0  0  0
    4.7038    1.0471   17.7831 N   0  0  0  0  0  0  0  0  0  0  0  0
    3.5961    1.8361   18.4158 C   0  0  0  0  0  0  0  0  0  0  0  0
    3.5592    2.0164   19.9045 C   0  0  0  0  0  0  0  0  0  0  0  0
    2.4514    2.8055   20.5372 C   0  0  0  0  0  0  0  0  0  0  0  0
    2.4146    2.9857   22.0259 C   0  0  0  0  0  0  0  0  0  0  0  0
    3.4855    2.3770   22.8818 C   0  0  0  0  0  0  0  0  0  0  0  0
    4.5932    1.5880   22.2491 C   0  0  0  0  0  0  0  0  0  0  0  0
    4.6301    1.4077   20.7605 C   0  0  0  0  0  0  0  0  0  0  0  0
    6.3337   -4.8727   23.7274 C   0  0  0  0  0  0  0  0  0  0  0  0
    2.5087   -6.0554   27.1700 C   0  0  0  0  0  0  0  0  0  0  0  0
    3.7061   -5.4155   26.5321 N   0  0  0  0  0  0  0  0  0  0  0  0
    4.5465   -4.3260   27.1293 C   0  0  0  0  0  0  0  0  0  0  0  0
    5.6331   -3.9900   26.1513 C   0  0  0  0  0  0  0  0  0  0  0  0
    5.4643   -4.8719   24.9497 C   0  0  0  0  0  0  0  0  0  0  0  0
    4.2733   -5.7530   25.1851 N   0  0  0  0  0  0  0  0  0  0  0  0
 29 30  1  0  0  0
 30 31  1  0  0  0
 31 32  2  0  0  0
 32 33  1  0  0  0
 33 28  1  0  0  0
 28  1  1  0  0  0
  1  2  1  0  0  0
  3  2  1  0  0  0
  3  4  1  0  0  0
  4  5  1  0  0  0
  5  6  1  0  0  0
  6 18  1  0  0  0
 18 19  2  0  0  0
 19 20  1  0  0  0
 20 21  2  0  0  0
 21 22  1  0  0  0
 22 23  2  0  0  0
 23 24  1  0  0  0
 24 25  2  0  0  0
 25 26  1  0  0  0
 26 27  2  0  0  0
  6  7  1  0  0  0
  7  8  2  0  0  0
  3  9  1  0  0  0
  9 10  2  0  0  0
 10 11  1  0  0  0
 11 12  1  0  0  0
 11 13  2  0  0  0
 13 14  1  0  0  0
 14 15  2  0  0  0
 15 16  1  0  0  0
 16 17  2  0  0  0
 33 34  2  0  0  0
 34 30  1  0  0  0
 16  1  1  0  0  0
  7  3  1  0  0  0
 15  9  1  0  0  0
 27 18  1  0  0  0
 27 22  1  0  0  0
M  END
> <minimizedAffinity>
-8.28164

> <CNNscore>
0.2451959252

> <CNNaffinity>
6.4515810013

> <CNN_VS>
1.5819014311

> <CNNaffinity_variance>
0.0762736201

$$$$



 34 39  0  0  0  0  0  0  0  0999 V2000
    8.3035    0.2920   23.0885 N   0  0  0  0  0  0  0  0  0  0  0  0
    7.6855   -0.8001   23.9103 C   0  0  0  0  0  0  0  0  0  0  0  0
    8.5515   -1.6766   24.7657 C   0  0  0  0  0  0  0  0  0  0  0  0
    9.2859   -2.6272   25.6641 C   0  0  0  0  0  0  0  0  0  0  0  0
    8.2788   -3.5480   26.2870 C   0  0  0  0  0  0  0  0  0  0  0  0
    6.9220   -3.1665   25.7736 N   0  0  0  0  0  0  0  0  0  0  0  0
    7.0906   -2.0099   24.8335 C   0  0  0  0  0  0  0  0  0  0  0  0
    5.9911   -1.3096   24.0913 O   0  0  0  0  0  0  0  0  0  0  0  0
   10.0356   -1.4610   24.7994 C   0  0  0  0  0  0  0  0  0  0  0  0
   10.9016   -2.3374   25.6549 C   0  0  0  0  0  0  0  0  0  0  0  0
   12.3856   -2.1218   25.6885 C   0  0  0  0  0  0  0  0  0  0  0  0
   13.2516   -2.9982   26.5440 Cl  0  0  0  0  0  0  0  0  0  0  0  0
   13.0036   -1.0296   24.8668 C   0  0  0  0  0  0  0  0  0  0  0  0
   12.1376   -0.1532   24.0113 C   0  0  0  0  0  0  0  0  0  0  0  0
   10.6536   -0.3688   23.9776 C   0  0  0  0  0  0  0  0  0  0  0  0
    9.7875    0.5076   23.1222 C   0  0  0  0  0  0  0  0  0  0  0  0
   10.4055    1.5998   22.3004 O   0  0  0  0  0  0  0  0  0  0  0  0
    5.6245   -3.8258   26.1367 C   0  0  0  0  0  0  0  0  0  0  0  0
    5.0355   -3.6216   27.5010 C   0  0  0  0  0  0  0  0  0  0  0  0
    3.7380   -4.2809   27.8640 N   0  0  0  0  0  0  0  0  0  0  0  0
    3.0296   -5.1443   26.8628 C   0  0  0  0  0  0  0  0  0  0  0  0
    3.6186   -5.3485   25.4984 C   0  0  0  0  0  0  0  0  0  0  0  0
    2.9101   -6.2119   24.4971 C   0  0  0  0  0  0  0  0  0  0  0  0
    3.4992   -6.4160   23.1328 C   0  0  0  0  0  0  0  0  0  0  0  0
    4.7966   -5.7567   22.7698 C   0  0  0  0  0  0  0  0  0  0  0  0
    5.5051   -4.8933   23.7711 C   0  0  0  0  0  0  0  0  0  0  0  0
    4.9161   -4.6892   25.1354 C   0  0  0  0  0  0  0  0  0  0  0  0
    7.4374    1.1685   22.2330 C   0  0  0  0  0  0  0  0  0  0  0  0
    7.0160    5.5314   25.1771 C   0  0  0  0  0  0  0  0  0  0  0  0
    6.9165    4.5685   24.0313 N   0  0  0  0  0  0  0  0  0  0  0  0
    6.2970    4.8498   22.6944 C   0  0  0  0  0  0  0  0  0  0  0  0
    6.4168    3.6103   21.8581 C   0  0  0  0  0  0  0  0  0  0  0  0
    7.1103    2.5631   22.6780 C   0  0  0  0  0  0  0  0  0  0  0  0
    7.4192    3.1553   24.0212 N   0  0  0  0  0  0  0  0  0  0  0  0
 29 30  1  0  0  0
 30 31  1  0  0  0
 31 32  2  0  0  0
 32 33  1  0  0  0
 33 28  1  0  0  0
 28  1  1  0  0  0
  1  2  1  0  0  0
  3  2  1  0  0  0
  3  4  1  0  0  0
  4  5  1  0  0  0
  5  6  1  0  0  0
  6 18  1  0  0  0
 18 19  2  0  0  0
 19 20  1  0  0  0
 20 21  2  0  0  0
 21 22  1  0  0  0
 22 23  2  0  0  0
 23 24  1  0  0  0
 24 25  2  0  0  0
 25 26  1  0  0  0
 26 27  2  0  0  0
  6  7  1  0  0  0
  7  8  2  0  0  0
  3  9  1  0  0  0
  9 10  2  0  0  0
 10 11  1  0  0  0
 11 12  1  0  0  0
 11 13  2  0  0  0
 13 14  1  0  0  0
 14 15  2  0  0  0
 15 16  1  0  0  0
 16 17  2  0  0  0
 33 34  2  0  0  0
 34 30  1  0  0  0
 16  1  1  0  0  0
  7  3  1  0  0  0
 15  9  1  0  0  0
 27 18  1  0  0  0
 27 22  1  0  0  0
M  END
> <minimizedAffinity>
-7.60065

> <CNNscore>
0.2311748415

> <CNNaffinity>
6.3808503151

> <CNN_VS>
1.4750920534

> <CNNaffinity_variance>
0.3155362606

$$$$
