


 34 39  0  0  0  0  0  0  0  0999 V2000
   -9.4357   -2.4388  -24.3133 N   0  0  0  0  0  0  0  0  0  0  0  0
   -8.4020   -2.2411  -23.2445 C   0  0  0  0  0  0  0  0  0  0  0  0
   -7.3271   -3.2675  -23.0417 C   0  0  0  0  0  0  0  0  0  0  0  0
   -6.1982   -4.2024  -22.7232 C   0  0  0  0  0  0  0  0  0  0  0  0
   -5.4142   -3.6130  -21.5884 C   0  0  0  0  0  0  0  0  0  0  0  0
   -6.0586   -2.3137  -21.2054 N   0  0  0  0  0  0  0  0  0  0  0  0
   -7.2408   -2.1002  -22.1036 C   0  0  0  0  0  0  0  0  0  0  0  0
   -8.1731   -0.9256  -22.0697 O   0  0  0  0  0  0  0  0  0  0  0  0
   -7.2859   -4.4916  -23.9078 C   0  0  0  0  0  0  0  0  0  0  0  0
   -6.2110   -5.5179  -23.7050 C   0  0  0  0  0  0  0  0  0  0  0  0
   -6.1698   -6.7419  -24.5710 C   0  0  0  0  0  0  0  0  0  0  0  0
   -5.0949   -7.7684  -24.3682 Cl  0  0  0  0  0  0  0  0  0  0  0  0
   -7.2035   -6.9396  -25.6399 C   0  0  0  0  0  0  0  0  0  0  0  0
   -8.2784   -5.9132  -25.8427 C   0  0  0  0  0  0  0  0  0  0  0  0
   -8.3196   -4.6892  -24.9766 C   0  0  0  0  0  0  0  0  0  0  0  0
   -9.3945   -3.6628  -25.1794 C   0  0  0  0  0  0  0  0  0  0  0  0
  -10.4282   -3.8604  -26.2482 O   0  0  0  0  0  0  0  0  0  0  0  0
   -5.6011   -1.3901  -20.1157 C   0  0  0  0  0  0  0  0  0  0  0  0
   -6.0855   -1.5903  -18.7103 C   0  0  0  0  0  0  0  0  0  0  0  0
   -5.6281   -0.6667  -17.6205 N   0  0  0  0  0  0  0  0  0  0  0  0
   -4.6861    0.4571  -17.9362 C   0  0  0  0  0  0  0  0  0  0  0  0
   -4.2017    0.6574  -19.3416 C   0  0  0  0  0  0  0  0  0  0  0  0
   -3.2597    1.7813  -19.6573 C   0  0  0  0  0  0  0  0  0  0  0  0
   -2.7753    1.9815  -21.0627 C   0  0  0  0  0  0  0  0  0  0  0  0
   -3.2329    1.0579  -22.1524 C   0  0  0  0  0  0  0  0  0  0  0  0
   -4.1748   -0.0660  -21.8368 C   0  0  0  0  0  0  0  0  0  0  0  0
   -4.6592   -0.2662  -20.4314 C   0  0  0  0  0  0  0  0  0  0  0  0
  -10.5106   -1.4123  -24.5161 C   0  0  0  0  0  0  0  0  0  0  0  0
  -14.1578   -2.9339  -21.0141 C   0  0  0  0  0  0  0  0  0  0  0  0
  -13.4511   -2.1805  -22.1017 N   0  0  0  0  0  0  0  0  0  0  0  0
  -13.9885   -0.9932  -22.8445 C   0  0  0  0  0  0  0  0  0  0  0  0
  -12.9524   -0.5610  -23.8393 C   0  0  0  0  0  0  0  0  0  0  0  0
  -11.7747   -1.4811  -23.7114 C   0  0  0  0  0  0  0  0  0  0  0  0
  -12.0829   -2.4820  -22.6375 N   0  0  0  0  0  0  0  0  0  0  0  0
 29 30  1  0  0  0
 30 31  1  0  0  0
 31 32  2  0  0  0
 32 33  1  0  0  0
 33 28  1  0  0  0
 28  1  1  0  0  0
  1  2  1  0  0  0
  3  2  1  0  0  0
  3  4  1  0  0  0
  4  5  1  0  0  0
  5  6  1  0  0  0
  6 18  1  0  0  0
 18 19  2  0  0  0
 19 20  1  0  0  0
 20 21  2  0  0  0
 21 22  1  0  0  0
 22 23  2  0  0  0
 23 24  1  0  0  0
 24 25  2  0  0  0
 25 26  1  0  0  0
 26 27  2  0  0  0
  6  7  1  0  0  0
  7  8  2  0  0  0
  3  9  1  0  0  0
  9 10  2  0  0  0
 10 11  1  0  0  0
 11 12  1  0  0  0
 11 13  2  0  0  0
 13 14  1  0  0  0
 14 15  2  0  0  0
 15 16  1  0  0  0
 16 17  2  0  0  0
 33 34  2  0  0  0
 34 30  1  0  0  0
 16  1  1  0  0  0
  7  3  1  0  0  0
 15  9  1  0  0  0
 27 18  1  0  0  0
 27 22  1  0  0  0
M  END
> <minimizedAffinity>
-8.30231

> <CNNscore>
0.6230664849

> <CNNaffinity>
6.6184911728

> <CNN_VS>
4.1237602234

> <CNNaffinity_variance>
0.1456134319

$$$$



 34 39  0  0  0  0  0  0  0  0999 V2000
   -9.3933   -3.3919  -23.9264 N   0  0  0  0  0  0  0  0  0  0  0  0
   -9.8560   -1.9742  -23.7648 C   0  0  0  0  0  0  0  0  0  0  0  0
   -9.0831   -1.0276  -22.8952 C   0  0  0  0  0  0  0  0  0  0  0  0
   -8.4169    0.0279  -22.0632 C   0  0  0  0  0  0  0  0  0  0  0  0
   -9.2153    1.2914  -22.1910 C   0  0  0  0  0  0  0  0  0  0  0  0
  -10.3750    1.0167  -23.1019 N   0  0  0  0  0  0  0  0  0  0  0  0
  -10.2932   -0.4164  -23.5371 C   0  0  0  0  0  0  0  0  0  0  0  0
  -11.2532   -1.1157  -24.4534 O   0  0  0  0  0  0  0  0  0  0  0  0
   -7.8474   -1.4985  -22.1870 C   0  0  0  0  0  0  0  0  0  0  0  0
   -7.0745   -0.5519  -21.3174 C   0  0  0  0  0  0  0  0  0  0  0  0
   -5.8389   -1.0228  -20.6093 C   0  0  0  0  0  0  0  0  0  0  0  0
   -5.0659   -0.0761  -19.7396 Cl  0  0  0  0  0  0  0  0  0  0  0  0
   -5.3762   -2.4405  -20.7709 C   0  0  0  0  0  0  0  0  0  0  0  0
   -6.1491   -3.3872  -21.6406 C   0  0  0  0  0  0  0  0  0  0  0  0
   -7.3847   -2.9162  -22.3487 C   0  0  0  0  0  0  0  0  0  0  0  0
   -8.1577   -3.8629  -23.2184 C   0  0  0  0  0  0  0  0  0  0  0  0
   -7.6950   -5.2806  -23.3800 O   0  0  0  0  0  0  0  0  0  0  0  0
  -11.4309    2.0022  -23.5066 C   0  0  0  0  0  0  0  0  0  0  0  0
  -12.7822    1.9627  -22.8568 C   0  0  0  0  0  0  0  0  0  0  0  0
  -13.8382    2.9481  -23.2615 N   0  0  0  0  0  0  0  0  0  0  0  0
  -13.5428    3.9731  -24.3161 C   0  0  0  0  0  0  0  0  0  0  0  0
  -12.1914    4.0126  -24.9659 C   0  0  0  0  0  0  0  0  0  0  0  0
  -11.8960    5.0377  -26.0205 C   0  0  0  0  0  0  0  0  0  0  0  0
  -10.5446    5.0771  -26.6703 C   0  0  0  0  0  0  0  0  0  0  0  0
   -9.4888    4.0917  -26.2656 C   0  0  0  0  0  0  0  0  0  0  0  0
   -9.7842    3.0667  -25.2110 C   0  0  0  0  0  0  0  0  0  0  0  0
  -11.1354    3.0272  -24.5612 C   0  0  0  0  0  0  0  0  0  0  0  0
  -10.1663   -4.3386  -24.7961 C   0  0  0  0  0  0  0  0  0  0  0  0
   -6.5329   -5.7858  -28.3436 C   0  0  0  0  0  0  0  0  0  0  0  0
   -7.8282   -5.6624  -27.5973 N   0  0  0  0  0  0  0  0  0  0  0  0
   -9.1122   -6.3586  -27.9385 C   0  0  0  0  0  0  0  0  0  0  0  0
  -10.1444   -5.9474  -26.9307 C   0  0  0  0  0  0  0  0  0  0  0  0
   -9.4983   -4.9971  -25.9666 C   0  0  0  0  0  0  0  0  0  0  0  0
   -8.0667   -4.8209  -26.3786 N   0  0  0  0  0  0  0  0  0  0  0  0
 29 30  1  0  0  0
 30 31  1  0  0  0
 31 32  2  0  0  0
 32 33  1  0  0  0
 33 28  1  0  0  0
 28  1  1  0  0  0
  1  2  1  0  0  0
  3  2  1  0  0  0
  3  4  1  0  0  0
  4  5  1  0  0  0
  5  6  1  0  0  0
  6 18  1  0  0  0
 18 19  2  0  0  0
 19 20  1  0  0  0
 20 21  2  0  0  0
 21 22  1  0  0  0
 22 23  2  0  0  0
 23 24  1  0  0  0
 24 25  2  0  0  0
 25 26  1  0  0  0
 26 27  2  0  0  0
  6  7  1  0  0  0
  7  8  2  0  0  0
  3  9  1  0  0  0
  9 10  2  0  0  0
 10 11  1  0  0  0
 11 12  1  0  0  0
 11 13  2  0  0  0
 13 14  1  0  0  0
 14 15  2  0  0  0
 15 16  1  0  0  0
 16 17  2  0  0  0
 33 34  2  0  0  0
 34 30  1  0  0  0
 16  1  1  0  0  0
  7  3  1  0  0  0
 15  9  1  0  0  0
 27 18  1  0  0  0
 27 22  1  0  0  0
M  END
> <minimizedAffinity>
-8.59153

> <CNNscore>
0.4252502322

> <CNNaffinity>
6.2134790421

> <CNN_VS>
2.6422834396

> <CNNaffinity_variance>
0.2485287637

$$$$



 34 39  0  0  0  0  0  0  0  0999 V2000
  -10.0536   -2.9644  -23.6647 N   0  0  0  0  0  0  0  0  0  0  0  0
   -8.8881   -2.6335  -22.7803 C   0  0  0  0  0  0  0  0  0  0  0  0
   -7.6475   -3.4753  -22.8281 C   0  0  0  0  0  0  0  0  0  0  0  0
   -6.3479   -4.2217  -22.7660 C   0  0  0  0  0  0  0  0  0  0  0  0
   -5.4742   -3.5476  -21.7501 C   0  0  0  0  0  0  0  0  0  0  0  0
   -6.2338   -2.3844  -21.1843 N   0  0  0  0  0  0  0  0  0  0  0  0
   -7.5770   -2.3398  -21.8506 C   0  0  0  0  0  0  0  0  0  0  0  0
   -8.6595   -1.3358  -21.5857 O   0  0  0  0  0  0  0  0  0  0  0  0
   -7.5724   -4.6481  -23.7603 C   0  0  0  0  0  0  0  0  0  0  0  0
   -6.3319   -5.4899  -23.8081 C   0  0  0  0  0  0  0  0  0  0  0  0
   -6.2568   -6.6627  -24.7402 C   0  0  0  0  0  0  0  0  0  0  0  0
   -5.0162   -7.5046  -24.7881 Cl  0  0  0  0  0  0  0  0  0  0  0  0
   -7.4223   -6.9936  -25.6246 C   0  0  0  0  0  0  0  0  0  0  0  0
   -8.6629   -6.1518  -25.5768 C   0  0  0  0  0  0  0  0  0  0  0  0
   -8.7379   -4.9791  -24.6447 C   0  0  0  0  0  0  0  0  0  0  0  0
   -9.9785   -4.1372  -24.5968 C   0  0  0  0  0  0  0  0  0  0  0  0
  -11.1440   -4.4681  -25.4812 O   0  0  0  0  0  0  0  0  0  0  0  0
   -5.7374   -1.4330  -20.1363 C   0  0  0  0  0  0  0  0  0  0  0  0
   -6.1878   -1.5829  -18.7135 C   0  0  0  0  0  0  0  0  0  0  0  0
   -5.6914   -0.6314  -17.6655 N   0  0  0  0  0  0  0  0  0  0  0  0
   -4.7445    0.4699  -18.0404 C   0  0  0  0  0  0  0  0  0  0  0  0
   -4.2941    0.6198  -19.4633 C   0  0  0  0  0  0  0  0  0  0  0  0
   -3.3472    1.7211  -19.8382 C   0  0  0  0  0  0  0  0  0  0  0  0
   -2.8968    1.8709  -21.2611 C   0  0  0  0  0  0  0  0  0  0  0  0
   -3.3933    0.9195  -22.3090 C   0  0  0  0  0  0  0  0  0  0  0  0
   -4.3401   -0.1818  -21.9341 C   0  0  0  0  0  0  0  0  0  0  0  0
   -4.7905   -0.3317  -20.5113 C   0  0  0  0  0  0  0  0  0  0  0  0
  -11.2942   -2.1225  -23.6169 C   0  0  0  0  0  0  0  0  0  0  0  0
   -9.5362    2.7016  -24.8491 C   0  0  0  0  0  0  0  0  0  0  0  0
  -10.3867    1.5854  -24.3192 N   0  0  0  0  0  0  0  0  0  0  0  0
  -11.6968    1.7380  -23.6049 C   0  0  0  0  0  0  0  0  0  0  0  0
  -12.1962    0.3675  -23.2548 C   0  0  0  0  0  0  0  0  0  0  0  0
  -11.1947   -0.6320  -23.7528 C   0  0  0  0  0  0  0  0  0  0  0  0
  -10.0763    0.1207  -24.4107 N   0  0  0  0  0  0  0  0  0  0  0  0
 29 30  1  0  0  0
 30 31  1  0  0  0
 31 32  2  0  0  0
 32 33  1  0  0  0
 33 28  1  0  0  0
 28  1  1  0  0  0
  1  2  1  0  0  0
  3  2  1  0  0  0
  3  4  1  0  0  0
  4  5  1  0  0  0
  5  6  1  0  0  0
  6 18  1  0  0  0
 18 19  2  0  0  0
 19 20  1  0  0  0
 20 21  2  0  0  0
 21 22  1  0  0  0
 22 23  2  0  0  0
 23 24  1  0  0  0
 24 25  2  0  0  0
 25 26  1  0  0  0
 26 27  2  0  0  0
  6  7  1  0  0  0
  7  8  2  0  0  0
  3  9  1  0  0  0
  9 10  2  0  0  0
 10 11  1  0  0  0
 11 12  1  0  0  0
 11 13  2  0  0  0
 13 14  1  0  0  0
 14 15  2  0  0  0
 15 16  1  0  0  0
 16 17  2  0  0  0
 33 34  2  0  0  0
 34 30  1  0  0  0
 16  1  1  0  0  0
  7  3  1  0  0  0
 15  9  1  0  0  0
 27 18  1  0  0  0
 27 22  1  0  0  0
M  END
> <minimizedAffinity>
-9.01760

> <CNNscore>
0.3052060008

> <CNNaffinity>
6.0804738998

> <CNN_VS>
1.8557971716

> <CNNaffinity_variance>
0.2075180709

$$$$



 34 39  0  0  0  0  0  0  0  0999 V2000
   -5.3986    0.2174  -20.7918 N   0  0  0  0  0  0  0  0  0  0  0  0
   -6.6532    0.6454  -21.4938 C   0  0  0  0  0  0  0  0  0  0  0  0
   -6.6979    1.9599  -22.2149 C   0  0  0  0  0  0  0  0  0  0  0  0
   -6.8911    3.2396  -22.9732 C   0  0  0  0  0  0  0  0  0  0  0  0
   -8.2921    3.2540  -23.5089 C   0  0  0  0  0  0  0  0  0  0  0  0
   -8.9648    1.9832  -23.0816 N   0  0  0  0  0  0  0  0  0  0  0  0
   -7.9795    1.1835  -22.2819 C   0  0  0  0  0  0  0  0  0  0  0  0
   -8.2316   -0.1574  -21.6586 O   0  0  0  0  0  0  0  0  0  0  0  0
   -5.4880    2.8465  -22.2339 C   0  0  0  0  0  0  0  0  0  0  0  0
   -5.5328    4.1610  -22.9549 C   0  0  0  0  0  0  0  0  0  0  0  0
   -4.3229    5.0475  -22.9739 C   0  0  0  0  0  0  0  0  0  0  0  0
   -4.3676    6.3622  -23.6950 Cl  0  0  0  0  0  0  0  0  0  0  0  0
   -3.0684    4.6195  -22.2719 C   0  0  0  0  0  0  0  0  0  0  0  0
   -3.0237    3.3050  -21.5508 C   0  0  0  0  0  0  0  0  0  0  0  0
   -4.2335    2.4185  -21.5318 C   0  0  0  0  0  0  0  0  0  0  0  0
   -4.1888    1.1039  -20.8108 C   0  0  0  0  0  0  0  0  0  0  0  0
   -2.9342    0.6758  -20.1087 O   0  0  0  0  0  0  0  0  0  0  0  0
  -10.3752    1.5825  -23.3984 C   0  0  0  0  0  0  0  0  0  0  0  0
  -10.7158    0.1363  -23.6040 C   0  0  0  0  0  0  0  0  0  0  0  0
  -12.1261   -0.2644  -23.9208 N   0  0  0  0  0  0  0  0  0  0  0  0
  -13.1958    0.7813  -24.0320 C   0  0  0  0  0  0  0  0  0  0  0  0
  -12.8552    2.2275  -23.8265 C   0  0  0  0  0  0  0  0  0  0  0  0
  -13.9250    3.2732  -23.9377 C   0  0  0  0  0  0  0  0  0  0  0  0
  -13.5843    4.7194  -23.7321 C   0  0  0  0  0  0  0  0  0  0  0  0
  -12.1740    5.1200  -23.4153 C   0  0  0  0  0  0  0  0  0  0  0  0
  -11.1043    4.0744  -23.3041 C   0  0  0  0  0  0  0  0  0  0  0  0
  -11.4448    2.6282  -23.5096 C   0  0  0  0  0  0  0  0  0  0  0  0
   -5.3539   -1.0973  -20.0707 C   0  0  0  0  0  0  0  0  0  0  0  0
   -5.5931   -6.2243  -21.3106 C   0  0  0  0  0  0  0  0  0  0  0  0
   -5.6985   -4.7303  -21.3929 N   0  0  0  0  0  0  0  0  0  0  0  0
   -6.2007   -3.9452  -22.5683 C   0  0  0  0  0  0  0  0  0  0  0  0
   -6.1327   -2.4887  -22.2160 C   0  0  0  0  0  0  0  0  0  0  0  0
   -5.5885   -2.3736  -20.8229 C   0  0  0  0  0  0  0  0  0  0  0  0
   -5.3201   -3.7590  -20.3142 N   0  0  0  0  0  0  0  0  0  0  0  0
 29 30  1  0  0  0
 30 31  1  0  0  0
 31 32  2  0  0  0
 32 33  1  0  0  0
 33 28  1  0  0  0
 28  1  1  0  0  0
  1  2  1  0  0  0
  3  2  1  0  0  0
  3  4  1  0  0  0
  4  5  1  0  0  0
  5  6  1  0  0  0
  6 18  1  0  0  0
 18 19  2  0  0  0
 19 20  1  0  0  0
 20 21  2  0  0  0
 21 22  1  0  0  0
 22 23  2  0  0  0
 23 24  1  0  0  0
 24 25  2  0  0  0
 25 26  1  0  0  0
 26 27  2  0  0  0
  6  7  1  0  0  0
  7  8  2  0  0  0
  3  9  1  0  0  0
  9 10  2  0  0  0
 10 11  1  0  0  0
 11 12  1  0  0  0
 11 13  2  0  0  0
 13 14  1  0  0  0
 14 15  2  0  0  0
 15 16  1  0  0  0
 16 17  2  0  0  0
 33 34  2  0  0  0
 34 30  1  0  0  0
 16  1  1  0  0  0
  7  3  1  0  0  0
 15  9  1  0  0  0
 27 18  1  0  0  0
 27 22  1  0  0  0
M  END
> <minimizedAffinity>
-8.16140

> <CNNscore>
0.2676061690

> <CNNaffinity>
5.8580274582

> <CNN_VS>
1.5676442385

> <CNNaffinity_variance>
0.3495332599

$$$$



 34 39  0  0  0  0  0  0  0  0999 V2000
   -5.3130    0.1861  -20.7971 N   0  0  0  0  0  0  0  0  0  0  0  0
   -6.6274    0.5259  -21.4350 C   0  0  0  0  0  0  0  0  0  0  0  0
   -6.7988    1.8341  -22.1485 C   0  0  0  0  0  0  0  0  0  0  0  0
   -7.1176    3.0972  -22.8921 C   0  0  0  0  0  0  0  0  0  0  0  0
   -8.5410    3.0142  -23.3580 C   0  0  0  0  0  0  0  0  0  0  0  0
   -9.1020    1.6997  -22.9023 N   0  0  0  0  0  0  0  0  0  0  0  0
   -8.0252    0.9704  -22.1548 C   0  0  0  0  0  0  0  0  0  0  0  0
   -8.1525   -0.3847  -21.5244 O   0  0  0  0  0  0  0  0  0  0  0  0
   -5.6558    2.8025  -22.2242 C   0  0  0  0  0  0  0  0  0  0  0  0
   -5.8272    4.1107  -22.9378 C   0  0  0  0  0  0  0  0  0  0  0  0
   -4.6842    5.0791  -23.0135 C   0  0  0  0  0  0  0  0  0  0  0  0
   -4.8556    6.3874  -23.7271 Cl  0  0  0  0  0  0  0  0  0  0  0  0
   -3.3698    4.7393  -22.3756 C   0  0  0  0  0  0  0  0  0  0  0  0
   -3.1984    3.4311  -21.6620 C   0  0  0  0  0  0  0  0  0  0  0  0
   -4.3414    2.4627  -21.5864 C   0  0  0  0  0  0  0  0  0  0  0  0
   -4.1700    1.1545  -20.8728 C   0  0  0  0  0  0  0  0  0  0  0  0
   -2.8556    0.8147  -20.2349 O   0  0  0  0  0  0  0  0  0  0  0  0
  -10.4950    1.2020  -23.1505 C   0  0  0  0  0  0  0  0  0  0  0  0
  -11.6642    2.1239  -22.9691 C   0  0  0  0  0  0  0  0  0  0  0  0
  -13.0573    1.6261  -23.2173 N   0  0  0  0  0  0  0  0  0  0  0  0
  -13.2811    0.2065  -23.6469 C   0  0  0  0  0  0  0  0  0  0  0  0
  -12.1118   -0.7154  -23.8283 C   0  0  0  0  0  0  0  0  0  0  0  0
  -12.3356   -2.1350  -24.2580 C   0  0  0  0  0  0  0  0  0  0  0  0
  -11.1663   -3.0569  -24.4394 C   0  0  0  0  0  0  0  0  0  0  0  0
   -9.7733   -2.5591  -24.1912 C   0  0  0  0  0  0  0  0  0  0  0  0
   -9.5495   -1.1395  -23.7616 C   0  0  0  0  0  0  0  0  0  0  0  0
  -10.7187   -0.2176  -23.5801 C   0  0  0  0  0  0  0  0  0  0  0  0
   -5.1416   -1.1222  -20.0835 C   0  0  0  0  0  0  0  0  0  0  0  0
   -5.6220   -6.2663  -21.1734 C   0  0  0  0  0  0  0  0  0  0  0  0
   -5.6868   -4.7720  -21.2865 N   0  0  0  0  0  0  0  0  0  0  0  0
   -6.2433   -3.9988  -22.4451 C   0  0  0  0  0  0  0  0  0  0  0  0
   -6.1069   -2.5374  -22.1355 C   0  0  0  0  0  0  0  0  0  0  0  0
   -5.4659   -2.4075  -20.7855 C   0  0  0  0  0  0  0  0  0  0  0  0
   -5.2063   -3.7886  -20.2608 N   0  0  0  0  0  0  0  0  0  0  0  0
 29 30  1  0  0  0
 30 31  1  0  0  0
 31 32  2  0  0  0
 32 33  1  0  0  0
 33 28  1  0  0  0
 28  1  1  0  0  0
  1  2  1  0  0  0
  3  2  1  0  0  0
  3  4  1  0  0  0
  4  5  1  0  0  0
  5  6  1  0  0  0
  6 18  1  0  0  0
 18 19  2  0  0  0
 19 20  1  0  0  0
 20 21  2  0  0  0
 21 22  1  0  0  0
 22 23  2  0  0  0
 23 24  1  0  0  0
 24 25  2  0  0  0
 25 26  1  0  0  0
 26 27  2  0  0  0
  6  7  1  0  0  0
  7  8  2  0  0  0
  3  9  1  0  0  0
  9 10  2  0  0  0
 10 11  1  0  0  0
 11 12  1  0  0  0
 11 13  2  0  0  0
 13 14  1  0  0  0
 14 15  2  0  0  0
 15 16  1  0  0  0
 16 17  2  0  0  0
 33 34  2  0  0  0
 34 30  1  0  0  0
 16  1  1  0  0  0
  7  3  1  0  0  0
 15  9  1  0  0  0
 27 18  1  0  0  0
 27 22  1  0  0  0
M  END
> <minimizedAffinity>
-7.54829

> <CNNscore>
0.2632320821

> <CNNaffinity>
6.1517858505

> <CNN_VS>
1.6193474531

> <CNNaffinity_variance>
0.0583028011

$$$$



 34 39  0  0  0  0  0  0  0  0999 V2000
   -8.1412   -1.7372  -24.2303 N   0  0  0  0  0  0  0  0  0  0  0  0
   -8.8763   -0.4334  -24.1315 C   0  0  0  0  0  0  0  0  0  0  0  0
   -8.1234    0.8324  -23.8472 C   0  0  0  0  0  0  0  0  0  0  0  0
   -7.5088    2.1722  -23.5697 C   0  0  0  0  0  0  0  0  0  0  0  0
   -8.6078    3.1932  -23.5595 C   0  0  0  0  0  0  0  0  0  0  0  0
   -9.9015    2.4843  -23.8307 N   0  0  0  0  0  0  0  0  0  0  0  0
   -9.6022    1.0252  -24.0085 C   0  0  0  0  0  0  0  0  0  0  0  0
  -10.6056   -0.0519  -24.2969 O   0  0  0  0  0  0  0  0  0  0  0  0
   -6.6354    0.7944  -23.6617 C   0  0  0  0  0  0  0  0  0  0  0  0
   -5.8825    2.0602  -23.3775 C   0  0  0  0  0  0  0  0  0  0  0  0
   -4.3945    2.0222  -23.1920 C   0  0  0  0  0  0  0  0  0  0  0  0
   -3.6416    3.2881  -22.9078 Cl  0  0  0  0  0  0  0  0  0  0  0  0
   -3.6594    0.7185  -23.2909 C   0  0  0  0  0  0  0  0  0  0  0  0
   -4.4123   -0.5474  -23.5751 C   0  0  0  0  0  0  0  0  0  0  0  0
   -5.9003   -0.5094  -23.7606 C   0  0  0  0  0  0  0  0  0  0  0  0
   -6.6533   -1.7752  -24.0448 C   0  0  0  0  0  0  0  0  0  0  0  0
   -5.9182   -3.0790  -24.1437 O   0  0  0  0  0  0  0  0  0  0  0  0
  -11.2567    3.1223  -23.9102 C   0  0  0  0  0  0  0  0  0  0  0  0
  -12.2394    2.9375  -22.7922 C   0  0  0  0  0  0  0  0  0  0  0  0
  -13.5946    3.5755  -22.8716 N   0  0  0  0  0  0  0  0  0  0  0  0
  -13.9670    4.3985  -24.0691 C   0  0  0  0  0  0  0  0  0  0  0  0
  -12.9843    4.5834  -25.1872 C   0  0  0  0  0  0  0  0  0  0  0  0
  -13.3567    5.4064  -26.3847 C   0  0  0  0  0  0  0  0  0  0  0  0
  -12.3739    5.5912  -27.5027 C   0  0  0  0  0  0  0  0  0  0  0  0
  -11.0188    4.9532  -27.4232 C   0  0  0  0  0  0  0  0  0  0  0  0
  -10.6464    4.1302  -26.2257 C   0  0  0  0  0  0  0  0  0  0  0  0
  -11.6291    3.9453  -25.1077 C   0  0  0  0  0  0  0  0  0  0  0  0
   -8.8942   -3.0031  -24.5146 C   0  0  0  0  0  0  0  0  0  0  0  0
   -6.6809   -7.0347  -21.9206 C   0  0  0  0  0  0  0  0  0  0  0  0
   -7.2518   -6.1852  -23.0172 N   0  0  0  0  0  0  0  0  0  0  0  0
   -7.3629   -6.5693  -24.4629 C   0  0  0  0  0  0  0  0  0  0  0  0
   -7.9916   -5.4240  -25.1998 C   0  0  0  0  0  0  0  0  0  0  0  0
   -8.2692   -4.3321  -24.2095 C   0  0  0  0  0  0  0  0  0  0  0  0
   -7.8120   -4.8026  -22.8605 N   0  0  0  0  0  0  0  0  0  0  0  0
 29 30  1  0  0  0
 30 31  1  0  0  0
 31 32  2  0  0  0
 32 33  1  0  0  0
 33 28  1  0  0  0
 28  1  1  0  0  0
  1  2  1  0  0  0
  3  2  1  0  0  0
  3  4  1  0  0  0
  4  5  1  0  0  0
  5  6  1  0  0  0
  6 18  1  0  0  0
 18 19  2  0  0  0
 19 20  1  0  0  0
 20 21  2  0  0  0
 21 22  1  0  0  0
 22 23  2  0  0  0
 23 24  1  0  0  0
 24 25  2  0  0  0
 25 26  1  0  0  0
 26 27  2  0  0  0
  6  7  1  0  0  0
  7  8  2  0  0  0
  3  9  1  0  0  0
  9 10  2  0  0  0
 10 11  1  0  0  0
 11 12  1  0  0  0
 11 13  2  0  0  0
 13 14  1  0  0  0
 14 15  2  0  0  0
 15 16  1  0  0  0
 16 17  2  0  0  0
 33 34  2  0  0  0
 34 30  1  0  0  0
 16  1  1  0  0  0
  7  3  1  0  0  0
 15  9  1  0  0  0
 27 18  1  0  0  0
 27 22  1  0  0  0
M  END
> <minimizedAffinity>
-7.20685

> <CNNscore>
0.2194054574

> <CNNaffinity>
6.0176181793

> <CNN_VS>
1.3202983141

> <CNNaffinity_variance>
0.1094078273

$$$$



 34 39  0  0  0  0  0  0  0  0999 V2000
  -10.4736    0.2220  -22.9745 N   0  0  0  0  0  0  0  0  0  0  0  0
   -9.0434    0.1246  -22.5329 C   0  0  0  0  0  0  0  0  0  0  0  0
   -8.2478   -1.1107  -22.8347 C   0  0  0  0  0  0  0  0  0  0  0  0
   -7.3319   -2.2763  -23.0633 C   0  0  0  0  0  0  0  0  0  0  0  0
   -6.0004   -1.9457  -22.4568 C   0  0  0  0  0  0  0  0  0  0  0  0
   -6.0934   -0.5756  -21.8533 N   0  0  0  0  0  0  0  0  0  0  0  0
   -7.4823   -0.0596  -22.0868 C   0  0  0  0  0  0  0  0  0  0  0  0
   -8.0127    1.2736  -21.6493 O   0  0  0  0  0  0  0  0  0  0  0  0
   -8.8823   -2.2485  -23.5782 C   0  0  0  0  0  0  0  0  0  0  0  0
   -8.0867   -3.4837  -23.8800 C   0  0  0  0  0  0  0  0  0  0  0  0
   -8.7213   -4.6215  -24.6235 C   0  0  0  0  0  0  0  0  0  0  0  0
   -7.9256   -5.8568  -24.9253 Cl  0  0  0  0  0  0  0  0  0  0  0  0
  -10.1515   -4.5240  -25.0651 C   0  0  0  0  0  0  0  0  0  0  0  0
  -10.9471   -3.2888  -24.7633 C   0  0  0  0  0  0  0  0  0  0  0  0
  -10.3125   -2.1510  -24.0198 C   0  0  0  0  0  0  0  0  0  0  0  0
  -11.1082   -0.9157  -23.7180 C   0  0  0  0  0  0  0  0  0  0  0  0
  -12.5384   -0.8183  -24.1596 O   0  0  0  0  0  0  0  0  0  0  0  0
   -4.9910    0.1509  -21.1413 C   0  0  0  0  0  0  0  0  0  0  0  0
   -5.1185    0.4596  -19.6790 C   0  0  0  0  0  0  0  0  0  0  0  0
   -4.0161    1.1861  -18.9670 N   0  0  0  0  0  0  0  0  0  0  0  0
   -2.7863    1.6038  -19.7173 C   0  0  0  0  0  0  0  0  0  0  0  0
   -2.6589    1.2951  -21.1797 C   0  0  0  0  0  0  0  0  0  0  0  0
   -1.4290    1.7130  -21.9300 C   0  0  0  0  0  0  0  0  0  0  0  0
   -1.3016    1.4042  -23.3924 C   0  0  0  0  0  0  0  0  0  0  0  0
   -2.4040    0.6777  -24.1043 C   0  0  0  0  0  0  0  0  0  0  0  0
   -3.6338    0.2600  -23.3540 C   0  0  0  0  0  0  0  0  0  0  0  0
   -3.7612    0.5686  -21.8917 C   0  0  0  0  0  0  0  0  0  0  0  0
  -11.2692    1.4573  -22.6726 C   0  0  0  0  0  0  0  0  0  0  0  0
  -13.2816    5.0729  -25.9527 C   0  0  0  0  0  0  0  0  0  0  0  0
  -12.3102    4.2062  -25.2075 N   0  0  0  0  0  0  0  0  0  0  0  0
  -10.8175    4.2277  -25.3534 C   0  0  0  0  0  0  0  0  0  0  0  0
  -10.2459    3.2006  -24.4216 C   0  0  0  0  0  0  0  0  0  0  0  0
  -11.3853    2.5443  -23.6998 C   0  0  0  0  0  0  0  0  0  0  0  0
  -12.6612    3.1658  -24.1855 N   0  0  0  0  0  0  0  0  0  0  0  0
 29 30  1  0  0  0
 30 31  1  0  0  0
 31 32  2  0  0  0
 32 33  1  0  0  0
 33 28  1  0  0  0
 28  1  1  0  0  0
  1  2  1  0  0  0
  3  2  1  0  0  0
  3  4  1  0  0  0
  4  5  1  0  0  0
  5  6  1  0  0  0
  6 18  1  0  0  0
 18 19  2  0  0  0
 19 20  1  0  0  0
 20 21  2  0  0  0
 21 22  1  0  0  0
 22 23  2  0  0  0
 23 24  1  0  0  0
 24 25  2  0  0  0
 25 26  1  0  0  0
 26 27  2  0  0  0
  6  7  1  0  0  0
  7  8  2  0  0  0
  3  9  1  0  0  0
  9 10  2  0  0  0
 10 11  1  0  0  0
 11 12  1  0  0  0
 11 13  2  0  0  0
 13 14  1  0  0  0
 14 15  2  0  0  0
 15 16  1  0  0  0
 16 17  2  0  0  0
 33 34  2  0  0  0
 34 30  1  0  0  0
 16  1  1  0  0  0
  7  3  1  0  0  0
 15  9  1  0  0  0
 27 18  1  0  0  0
 27 22  1  0  0  0
M  END
> <minimizedAffinity>
-8.36941

> <CNNscore>
0.1951995790

> <CNNaffinity>
6.0501356125

> <CNN_VS>
1.1809839010

> <CNNaffinity_variance>
0.1007384211

$$$$



 34 39  0  0  0  0  0  0  0  0999 V2000
   -7.5485   -0.7635  -26.0706 N   0  0  0  0  0  0  0  0  0  0  0  0
   -7.1356   -0.8939  -24.6345 C   0  0  0  0  0  0  0  0  0  0  0  0
   -7.1305   -2.2410  -23.9749 C   0  0  0  0  0  0  0  0  0  0  0  0
   -7.0758   -3.5152  -23.1853 C   0  0  0  0  0  0  0  0  0  0  0  0
   -6.6112   -3.1817  -21.7986 C   0  0  0  0  0  0  0  0  0  0  0  0
   -6.3786   -1.7014  -21.7312 N   0  0  0  0  0  0  0  0  0  0  0  0
   -6.6996   -1.1200  -23.0762 C   0  0  0  0  0  0  0  0  0  0  0  0
   -6.6060    0.3281  -23.4557 O   0  0  0  0  0  0  0  0  0  0  0  0
   -7.5384   -3.4579  -24.7514 C   0  0  0  0  0  0  0  0  0  0  0  0
   -7.5333   -4.8050  -24.0918 C   0  0  0  0  0  0  0  0  0  0  0  0
   -7.9412   -6.0218  -24.8683 C   0  0  0  0  0  0  0  0  0  0  0  0
   -7.9361   -7.3690  -24.2087 Cl  0  0  0  0  0  0  0  0  0  0  0  0
   -8.3541   -5.8914  -26.3044 C   0  0  0  0  0  0  0  0  0  0  0  0
   -8.3592   -4.5443  -26.9640 C   0  0  0  0  0  0  0  0  0  0  0  0
   -7.9514   -3.3275  -26.1875 C   0  0  0  0  0  0  0  0  0  0  0  0
   -7.9564   -1.9803  -26.8472 C   0  0  0  0  0  0  0  0  0  0  0  0
   -8.3694   -1.8499  -28.2833 O   0  0  0  0  0  0  0  0  0  0  0  0
   -5.9078   -0.9367  -20.5297 C   0  0  0  0  0  0  0  0  0  0  0  0
   -6.6478   -1.0520  -19.2301 C   0  0  0  0  0  0  0  0  0  0  0  0
   -6.1770   -0.2873  -18.0286 N   0  0  0  0  0  0  0  0  0  0  0  0
   -4.9662    0.5926  -18.1268 C   0  0  0  0  0  0  0  0  0  0  0  0
   -4.2262    0.7079  -19.4265 C   0  0  0  0  0  0  0  0  0  0  0  0
   -3.0153    1.5879  -19.5246 C   0  0  0  0  0  0  0  0  0  0  0  0
   -2.2754    1.7030  -20.8243 C   0  0  0  0  0  0  0  0  0  0  0  0
   -2.7462    0.9384  -22.0257 C   0  0  0  0  0  0  0  0  0  0  0  0
   -3.9570    0.0584  -21.9275 C   0  0  0  0  0  0  0  0  0  0  0  0
   -4.6970   -0.0568  -20.6280 C   0  0  0  0  0  0  0  0  0  0  0  0
   -7.5536    0.5837  -26.7303 C   0  0  0  0  0  0  0  0  0  0  0  0
  -11.3241    3.1131  -24.0346 C   0  0  0  0  0  0  0  0  0  0  0  0
  -10.2492    2.8019  -25.0335 N   0  0  0  0  0  0  0  0  0  0  0  0
   -9.7453    3.7252  -26.1029 C   0  0  0  0  0  0  0  0  0  0  0  0
   -8.6742    3.0066  -26.8687 C   0  0  0  0  0  0  0  0  0  0  0  0
   -8.5161    1.6392  -26.2725 C   0  0  0  0  0  0  0  0  0  0  0  0
   -9.4896    1.5127  -25.1383 N   0  0  0  0  0  0  0  0  0  0  0  0
 29 30  1  0  0  0
 30 31  1  0  0  0
 31 32  2  0  0  0
 32 33  1  0  0  0
 33 28  1  0  0  0
 28  1  1  0  0  0
  1  2  1  0  0  0
  3  2  1  0  0  0
  3  4  1  0  0  0
  4  5  1  0  0  0
  5  6  1  0  0  0
  6 18  1  0  0  0
 18 19  2  0  0  0
 19 20  1  0  0  0
 20 21  2  0  0  0
 21 22  1  0  0  0
 22 23  2  0  0  0
 23 24  1  0  0  0
 24 25  2  0  0  0
 25 26  1  0  0  0
 26 27  2  0  0  0
  6  7  1  0  0  0
  7  8  2  0  0  0
  3  9  1  0  0  0
  9 10  2  0  0  0
 10 11  1  0  0  0
 11 12  1  0  0  0
 11 13  2  0  0  0
 13 14  1  0  0  0
 14 15  2  0  0  0
 15 16  1  0  0  0
 16 17  2  0  0  0
 33 34  2  0  0  0
 34 30  1  0  0  0
 16  1  1  0  0  0
  7  3  1  0  0  0
 15  9  1  0  0  0
 27 18  1  0  0  0
 27 22  1  0  0  0
M  END
> <minimizedAffinity>
-8.05138

> <CNNscore>
0.1841010451

> <CNNaffinity>
6.1285219193

> <CNN_VS>
1.1282672882

> <CNNaffinity_variance>
0.0411757827

$$$$



 34 39  0  0  0  0  0  0  0  0999 V2000
   -6.7325   -1.7411  -20.8150 N   0  0  0  0  0  0  0  0  0  0  0  0
   -7.9032   -1.1938  -21.5766 C   0  0  0  0  0  0  0  0  0  0  0  0
   -8.5422   -2.0119  -22.6594 C   0  0  0  0  0  0  0  0  0  0  0  0
   -9.2805   -2.7100  -23.7628 C   0  0  0  0  0  0  0  0  0  0  0  0
  -10.3747   -1.8000  -24.2366 C   0  0  0  0  0  0  0  0  0  0  0  0
  -10.3127   -0.5394  -23.4261 N   0  0  0  0  0  0  0  0  0  0  0  0
   -9.1802   -0.6704  -22.4513 C   0  0  0  0  0  0  0  0  0  0  0  0
   -8.7594    0.3595  -21.4450 O   0  0  0  0  0  0  0  0  0  0  0  0
   -8.0106   -3.3773  -22.9806 C   0  0  0  0  0  0  0  0  0  0  0  0
   -8.6496   -4.1953  -24.0633 C   0  0  0  0  0  0  0  0  0  0  0  0
   -8.1180   -5.5607  -24.3845 C   0  0  0  0  0  0  0  0  0  0  0  0
   -8.7571   -6.3788  -25.4673 Cl  0  0  0  0  0  0  0  0  0  0  0  0
   -6.9473   -6.1080  -23.6229 C   0  0  0  0  0  0  0  0  0  0  0  0
   -6.3083   -5.2899  -22.5401 C   0  0  0  0  0  0  0  0  0  0  0  0
   -6.8399   -3.9246  -22.2190 C   0  0  0  0  0  0  0  0  0  0  0  0
   -6.2009   -3.1064  -21.1362 C   0  0  0  0  0  0  0  0  0  0  0  0
   -5.0302   -3.6537  -20.3746 O   0  0  0  0  0  0  0  0  0  0  0  0
  -11.2233    0.6444  -23.5657 C   0  0  0  0  0  0  0  0  0  0  0  0
  -12.6798    0.5137  -23.2320 C   0  0  0  0  0  0  0  0  0  0  0  0
  -13.5904    1.6974  -23.3717 N   0  0  0  0  0  0  0  0  0  0  0  0
  -13.0445    3.0118  -23.8451 C   0  0  0  0  0  0  0  0  0  0  0  0
  -11.5879    3.1425  -24.1788 C   0  0  0  0  0  0  0  0  0  0  0  0
  -11.0420    4.4571  -24.6523 C   0  0  0  0  0  0  0  0  0  0  0  0
   -9.5854    4.5877  -24.9860 C   0  0  0  0  0  0  0  0  0  0  0  0
   -8.6749    3.4040  -24.8463 C   0  0  0  0  0  0  0  0  0  0  0  0
   -9.2208    2.0895  -24.3729 C   0  0  0  0  0  0  0  0  0  0  0  0
  -10.6773    1.9588  -24.0392 C   0  0  0  0  0  0  0  0  0  0  0  0
   -6.0934   -0.9230  -19.7323 C   0  0  0  0  0  0  0  0  0  0  0  0
   -2.0531    1.3247  -22.2827 C   0  0  0  0  0  0  0  0  0  0  0  0
   -3.0455    0.9675  -21.2161 N   0  0  0  0  0  0  0  0  0  0  0  0
   -3.0950    1.5398  -19.8304 C   0  0  0  0  0  0  0  0  0  0  0  0
   -4.2427    0.9012  -19.1060 C   0  0  0  0  0  0  0  0  0  0  0  0
   -4.9027   -0.0657  -20.0438 C   0  0  0  0  0  0  0  0  0  0  0  0
   -4.1627   -0.0247  -21.3481 N   0  0  0  0  0  0  0  0  0  0  0  0
 29 30  1  0  0  0
 30 31  1  0  0  0
 31 32  2  0  0  0
 32 33  1  0  0  0
 33 28  1  0  0  0
 28  1  1  0  0  0
  1  2  1  0  0  0
  3  2  1  0  0  0
  3  4  1  0  0  0
  4  5  1  0  0  0
  5  6  1  0  0  0
  6 18  1  0  0  0
 18 19  2  0  0  0
 19 20  1  0  0  0
 20 21  2  0  0  0
 21 22  1  0  0  0
 22 23  2  0  0  0
 23 24  1  0  0  0
 24 25  2  0  0  0
 25 26  1  0  0  0
 26 27  2  0  0  0
  6  7  1  0  0  0
  7  8  2  0  0  0
  3  9  1  0  0  0
  9 10  2  0  0  0
 10 11  1  0  0  0
 11 12  1  0  0  0
 11 13  2  0  0  0
 13 14  1  0  0  0
 14 15  2  0  0  0
 15 16  1  0  0  0
 16 17  2  0  0  0
 33 34  2  0  0  0
 34 30  1  0  0  0
 16  1  1  0  0  0
  7  3  1  0  0  0
 15  9  1  0  0  0
 27 18  1  0  0  0
 27 22  1  0  0  0
M  END
> <minimizedAffinity>
-9.10351

> <CNNscore>
0.1723154932

> <CNNaffinity>
6.0493402481

> <CNN_VS>
1.0423949957

> <CNNaffinity_variance>
0.1198720485

$$$$
