


 36 40  0  0  0  0  0  0  0  0999 V2000
    4.0793   -5.0603   25.9403 N   0  0  0  0  0  0  0  0  0  0  0  0
    5.4068   -4.8945   25.2618 C   0  0  0  0  0  0  0  0  0  0  0  0
    6.1877   -3.6265   25.4413 C   0  0  0  0  0  0  0  0  0  0  0  0
    7.0774   -2.4219   25.5271 C   0  0  0  0  0  0  0  0  0  0  0  0
    7.1117   -1.3254   26.0495 O   0  0  0  0  0  0  0  0  0  0  0  0
    8.2981   -2.6871   24.6968 N   0  0  0  0  0  0  0  0  0  0  0  0
    8.1629   -4.0556   24.0977 C   0  0  0  0  0  0  0  0  0  0  0  0
    6.8585   -4.6361   24.5579 C   0  0  0  0  0  0  0  0  0  0  0  0
    5.6411   -2.5241   26.2993 C   0  0  0  0  0  0  0  0  0  0  0  0
    6.4219   -1.2561   26.4789 C   0  0  0  0  0  0  0  0  0  0  0  0
    5.8753   -0.1538   27.3369 C   0  0  0  0  0  0  0  0  0  0  0  0
    6.6562    1.1143   27.5164 Cl  0  0  0  0  0  0  0  0  0  0  0  0
    4.5478   -0.3196   28.0153 C   0  0  0  0  0  0  0  0  0  0  0  0
    3.7670   -1.5876   27.8358 C   0  0  0  0  0  0  0  0  0  0  0  0
    4.3136   -2.6899   26.9778 C   0  0  0  0  0  0  0  0  0  0  0  0
    3.5327   -3.9580   26.7983 C   0  0  0  0  0  0  0  0  0  0  0  0
    2.2052   -4.1238   27.4767 O   0  0  0  0  0  0  0  0  0  0  0  0
    9.4515   -1.7485   24.5000 C   0  0  0  0  0  0  0  0  0  0  0  0
    9.2771   -0.5086   23.6739 C   0  0  0  0  0  0  0  0  0  0  0  0
   10.4306    0.4299   23.4772 N   0  0  0  0  0  0  0  0  0  0  0  0
   11.7584    0.1286   24.1064 C   0  0  0  0  0  0  0  0  0  0  0  0
   11.9328   -1.1113   24.9325 C   0  0  0  0  0  0  0  0  0  0  0  0
   13.2607   -1.4126   25.5618 C   0  0  0  0  0  0  0  0  0  0  0  0
   13.4351   -2.6525   26.3878 C   0  0  0  0  0  0  0  0  0  0  0  0
   12.2816   -3.5911   26.5846 C   0  0  0  0  0  0  0  0  0  0  0  0
   10.9538   -3.2897   25.9553 C   0  0  0  0  0  0  0  0  0  0  0  0
   10.7794   -2.0499   25.1292 C   0  0  0  0  0  0  0  0  0  0  0  0
    3.2985   -6.3284   25.7607 C   0  0  0  0  0  0  0  0  0  0  0  0
    1.9495   -7.5349   22.2287 C   0  0  0  0  0  0  0  0  0  0  0  0
    2.8411   -7.3659   23.4231 N   0  0  0  0  0  0  0  0  0  0  0  0
    2.4068   -6.4974   24.5663 C   0  0  0  0  0  0  0  0  0  0  0  0
    1.0809   -5.7979   24.5153 O   0  0  0  0  0  0  0  0  0  0  0  0
    3.7114   -7.8250   23.4566 H   0  0  0  0  0  0  0  0  0  0  0  0
    6.3197   -5.9889   24.1978 C   0  0  0  0  0  0  0  0  0  0  0  0
    5.9497   -6.2950   22.7768 C   0  0  0  0  0  0  0  0  0  0  0  0
    5.5796   -6.6010   21.3558 N   0  0  0  0  0  0  0  0  0  0  0  0
 29 30  1  0  0  0
 30 31  1  0  0  0
 31 32  2  0  0  0
 31 28  1  0  0  0
 28  1  1  0  0  0
  1  2  1  0  0  0
  3  2  1  0  0  0
  3  4  1  0  0  0
  4  5  2  0  0  0
  4  6  1  0  0  0
  6 18  1  0  0  0
 18 19  2  0  0  0
 19 20  1  0  0  0
 20 21  2  0  0  0
 21 22  1  0  0  0
 22 23  2  0  0  0
 23 24  1  0  0  0
 24 25  2  0  0  0
 25 26  1  0  0  0
 26 27  2  0  0  0
  6  7  1  0  0  0
  7  8  1  0  0  0
  8 34  1  0  0  0
 34 35  1  0  0  0
 35 36  3  0  0  0
  3  9  1  0  0  0
  9 10  2  0  0  0
 10 11  1  0  0  0
 11 12  1  0  0  0
 11 13  2  0  0  0
 13 14  1  0  0  0
 14 15  2  0  0  0
 15 16  1  0  0  0
 16 17  2  0  0  0
 16  1  1  0  0  0
  8  3  1  0  0  0
 15  9  1  0  0  0
 27 18  1  0  0  0
 27 22  1  0  0  0
 30 33  1  0  0  0
M  END
> <minimizedAffinity>
-7.12282

> <CNNscore>
0.4005811214

> <CNNaffinity>
6.5076889992

> <CNN_VS>
2.6068572998

> <CNNaffinity_variance>
0.0984408781

$$$$



 36 40  0  0  0  0  0  0  0  0999 V2000
   10.7021    1.3955   22.8879 N   0  0  0  0  0  0  0  0  0  0  0  0
    9.3036    1.0771   23.3273 C   0  0  0  0  0  0  0  0  0  0  0  0
    9.0556   -0.0581   24.2757 C   0  0  0  0  0  0  0  0  0  0  0  0
    8.6550   -1.1571   25.2148 C   0  0  0  0  0  0  0  0  0  0  0  0
    9.1550   -2.0499   25.8700 O   0  0  0  0  0  0  0  0  0  0  0  0
    7.1641   -1.1115   25.3726 N   0  0  0  0  0  0  0  0  0  0  0  0
    6.6431    0.0156   24.5311 C   0  0  0  0  0  0  0  0  0  0  0  0
    7.8121    0.6666   23.8532 C   0  0  0  0  0  0  0  0  0  0  0  0
   10.2060   -0.8751   24.7848 C   0  0  0  0  0  0  0  0  0  0  0  0
    9.9579   -2.0104   25.7333 C   0  0  0  0  0  0  0  0  0  0  0  0
   11.1083   -2.8273   26.2423 C   0  0  0  0  0  0  0  0  0  0  0  0
   10.8603   -3.9627   27.1908 Cl  0  0  0  0  0  0  0  0  0  0  0  0
   12.5067   -2.5090   25.8030 C   0  0  0  0  0  0  0  0  0  0  0  0
   12.7548   -1.3738   24.8545 C   0  0  0  0  0  0  0  0  0  0  0  0
   11.6044   -0.5568   24.3455 C   0  0  0  0  0  0  0  0  0  0  0  0
   11.8525    0.5785   23.3970 C   0  0  0  0  0  0  0  0  0  0  0  0
   13.2509    0.8968   22.9576 O   0  0  0  0  0  0  0  0  0  0  0  0
    6.3390   -2.0316   26.2227 C   0  0  0  0  0  0  0  0  0  0  0  0
    6.1133   -3.4504   25.7915 C   0  0  0  0  0  0  0  0  0  0  0  0
    5.2881   -4.3705   26.6416 N   0  0  0  0  0  0  0  0  0  0  0  0
    4.6887   -3.8717   27.9229 C   0  0  0  0  0  0  0  0  0  0  0  0
    4.9144   -2.4528   28.3542 C   0  0  0  0  0  0  0  0  0  0  0  0
    4.3150   -1.9541   29.6356 C   0  0  0  0  0  0  0  0  0  0  0  0
    4.5408   -0.5352   30.0668 C   0  0  0  0  0  0  0  0  0  0  0  0
    5.3659    0.3849   29.2167 C   0  0  0  0  0  0  0  0  0  0  0  0
    5.9653   -0.1139   27.9353 C   0  0  0  0  0  0  0  0  0  0  0  0
    5.7396   -1.5328   27.5041 C   0  0  0  0  0  0  0  0  0  0  0  0
   10.9501    2.5308   21.9394 C   0  0  0  0  0  0  0  0  0  0  0  0
   10.6538    6.2112   23.3942 C   0  0  0  0  0  0  0  0  0  0  0  0
   10.2701    4.8615   22.8643 N   0  0  0  0  0  0  0  0  0  0  0  0
   11.3339    3.8806   22.4693 C   0  0  0  0  0  0  0  0  0  0  0  0
   12.7816    4.2494   22.6043 O   0  0  0  0  0  0  0  0  0  0  0  0
    9.3199    4.6194   22.7757 H   0  0  0  0  0  0  0  0  0  0  0  0
    7.7488    1.8370   22.9171 C   0  0  0  0  0  0  0  0  0  0  0  0
    7.0564    1.7020   21.5934 C   0  0  0  0  0  0  0  0  0  0  0  0
    6.3640    1.5671   20.2696 N   0  0  0  0  0  0  0  0  0  0  0  0
 29 30  1  0  0  0
 30 31  1  0  0  0
 31 32  2  0  0  0
 31 28  1  0  0  0
 28  1  1  0  0  0
  1  2  1  0  0  0
  3  2  1  0  0  0
  3  4  1  0  0  0
  4  5  2  0  0  0
  4  6  1  0  0  0
  6 18  1  0  0  0
 18 19  2  0  0  0
 19 20  1  0  0  0
 20 21  2  0  0  0
 21 22  1  0  0  0
 22 23  2  0  0  0
 23 24  1  0  0  0
 24 25  2  0  0  0
 25 26  1  0  0  0
 26 27  2  0  0  0
  6  7  1  0  0  0
  7  8  1  0  0  0
  8 34  1  0  0  0
 34 35  1  0  0  0
 35 36  3  0  0  0
  3  9  1  0  0  0
  9 10  2  0  0  0
 10 11  1  0  0  0
 11 12  1  0  0  0
 11 13  2  0  0  0
 13 14  1  0  0  0
 14 15  2  0  0  0
 15 16  1  0  0  0
 16 17  2  0  0  0
 16  1  1  0  0  0
  8  3  1  0  0  0
 15  9  1  0  0  0
 27 18  1  0  0  0
 27 22  1  0  0  0
 30 33  1  0  0  0
M  END
> <minimizedAffinity>
-7.58057

> <CNNscore>
0.3720820844

> <CNNaffinity>
6.6239957809

> <CNN_VS>
2.4646701813

> <CNNaffinity_variance>
0.1247989908

$$$$



 36 40  0  0  0  0  0  0  0  0999 V2000
   10.4832    0.6662   23.6958 N   0  0  0  0  0  0  0  0  0  0  0  0
    9.0986    0.3074   24.1476 C   0  0  0  0  0  0  0  0  0  0  0  0
    8.8834   -0.8860   25.0304 C   0  0  0  0  0  0  0  0  0  0  0  0
    8.5153   -2.0442   25.9097 C   0  0  0  0  0  0  0  0  0  0  0  0
    9.0388   -2.9701   26.4972 O   0  0  0  0  0  0  0  0  0  0  0  0
    7.0282   -2.0237   26.1050 N   0  0  0  0  0  0  0  0  0  0  0  0
    6.4772   -0.8529   25.3464 C   0  0  0  0  0  0  0  0  0  0  0  0
    7.6238   -0.1498   24.6823 C   0  0  0  0  0  0  0  0  0  0  0  0
   10.0529   -1.7206   25.4616 C   0  0  0  0  0  0  0  0  0  0  0  0
    9.8378   -2.9140   26.3444 C   0  0  0  0  0  0  0  0  0  0  0  0
   11.0073   -3.7485   26.7755 C   0  0  0  0  0  0  0  0  0  0  0  0
   10.7922   -4.9420   27.6584 Cl  0  0  0  0  0  0  0  0  0  0  0  0
   12.3919   -3.3897   26.3237 C   0  0  0  0  0  0  0  0  0  0  0  0
   12.6070   -2.1963   25.4409 C   0  0  0  0  0  0  0  0  0  0  0  0
   11.4375   -1.3617   25.0098 C   0  0  0  0  0  0  0  0  0  0  0  0
   11.6526   -0.1683   24.1269 C   0  0  0  0  0  0  0  0  0  0  0  0
   13.0372    0.1906   23.6751 O   0  0  0  0  0  0  0  0  0  0  0  0
    6.2320   -3.0023   26.9164 C   0  0  0  0  0  0  0  0  0  0  0  0
    6.1345   -2.8389   28.4043 C   0  0  0  0  0  0  0  0  0  0  0  0
    5.3382   -3.8174   29.2157 N   0  0  0  0  0  0  0  0  0  0  0  0
    4.6395   -4.9594   28.5392 C   0  0  0  0  0  0  0  0  0  0  0  0
    4.7370   -5.1228   27.0513 C   0  0  0  0  0  0  0  0  0  0  0  0
    4.0381   -6.2648   26.3748 C   0  0  0  0  0  0  0  0  0  0  0  0
    4.1357   -6.4281   24.8869 C   0  0  0  0  0  0  0  0  0  0  0  0
    4.9319   -5.4495   24.0755 C   0  0  0  0  0  0  0  0  0  0  0  0
    5.6307   -4.3076   24.7520 C   0  0  0  0  0  0  0  0  0  0  0  0
    5.5332   -4.1442   26.2399 C   0  0  0  0  0  0  0  0  0  0  0  0
   10.6982    1.8597   22.8129 C   0  0  0  0  0  0  0  0  0  0  0  0
    8.1686    4.9011   23.1306 C   0  0  0  0  0  0  0  0  0  0  0  0
    9.3066    3.9678   23.4205 N   0  0  0  0  0  0  0  0  0  0  0  0
    9.5603    2.7930   22.5230 C   0  0  0  0  0  0  0  0  0  0  0  0
    8.6760    2.5515   21.3357 O   0  0  0  0  0  0  0  0  0  0  0  0
    9.8869    4.1263   24.1998 H   0  0  0  0  0  0  0  0  0  0  0  0
    7.5276    1.0747   23.8212 C   0  0  0  0  0  0  0  0  0  0  0  0
    6.1958    1.7231   23.5854 C   0  0  0  0  0  0  0  0  0  0  0  0
    4.8639    2.3715   23.3496 N   0  0  0  0  0  0  0  0  0  0  0  0
 29 30  1  0  0  0
 30 31  1  0  0  0
 31 32  2  0  0  0
 31 28  1  0  0  0
 28  1  1  0  0  0
  1  2  1  0  0  0
  3  2  1  0  0  0
  3  4  1  0  0  0
  4  5  2  0  0  0
  4  6  1  0  0  0
  6 18  1  0  0  0
 18 19  2  0  0  0
 19 20  1  0  0  0
 20 21  2  0  0  0
 21 22  1  0  0  0
 22 23  2  0  0  0
 23 24  1  0  0  0
 24 25  2  0  0  0
 25 26  1  0  0  0
 26 27  2  0  0  0
  6  7  1  0  0  0
  7  8  1  0  0  0
  8 34  1  0  0  0
 34 35  1  0  0  0
 35 36  3  0  0  0
  3  9  1  0  0  0
  9 10  2  0  0  0
 10 11  1  0  0  0
 11 12  1  0  0  0
 11 13  2  0  0  0
 13 14  1  0  0  0
 14 15  2  0  0  0
 15 16  1  0  0  0
 16 17  2  0  0  0
 16  1  1  0  0  0
  8  3  1  0  0  0
 15  9  1  0  0  0
 27 18  1  0  0  0
 27 22  1  0  0  0
 30 33  1  0  0  0
M  END
> <minimizedAffinity>
-7.57570

> <CNNscore>
0.3333565593

> <CNNaffinity>
6.4441146851

> <CNN_VS>
2.1481878757

> <CNNaffinity_variance>
0.2936213613

$$$$



 36 40  0  0  0  0  0  0  0  0999 V2000
    7.6301    4.5562   23.7427 N   0  0  0  0  0  0  0  0  0  0  0  0
    8.4185    3.3148   23.4472 C   0  0  0  0  0  0  0  0  0  0  0  0
    8.1507    2.0553   24.2165 C   0  0  0  0  0  0  0  0  0  0  0  0
    7.9957    0.7289   24.8994 C   0  0  0  0  0  0  0  0  0  0  0  0
    7.3334    0.2029   25.7718 O   0  0  0  0  0  0  0  0  0  0  0  0
    8.9818   -0.2238   24.2912 N   0  0  0  0  0  0  0  0  0  0  0  0
    9.7463    0.5139   23.2322 C   0  0  0  0  0  0  0  0  0  0  0  0
    9.2327    1.9224   23.1861 C   0  0  0  0  0  0  0  0  0  0  0  0
    7.0944    2.0371   25.2813 C   0  0  0  0  0  0  0  0  0  0  0  0
    6.8265    0.7776   26.0506 C   0  0  0  0  0  0  0  0  0  0  0  0
    5.7702    0.7595   27.1154 C   0  0  0  0  0  0  0  0  0  0  0  0
    5.5023   -0.5001   27.8848 Cl  0  0  0  0  0  0  0  0  0  0  0  0
    4.9818    2.0008   27.4109 C   0  0  0  0  0  0  0  0  0  0  0  0
    5.2496    3.2603   26.6416 C   0  0  0  0  0  0  0  0  0  0  0  0
    6.3059    3.2785   25.5768 C   0  0  0  0  0  0  0  0  0  0  0  0
    6.5738    4.5381   24.8075 C   0  0  0  0  0  0  0  0  0  0  0  0
    5.7853    5.7794   25.1030 O   0  0  0  0  0  0  0  0  0  0  0  0
    9.1703   -1.6617   24.6745 C   0  0  0  0  0  0  0  0  0  0  0  0
    8.0599   -2.6470   24.4596 C   0  0  0  0  0  0  0  0  0  0  0  0
    8.2484   -4.0849   24.8429 N   0  0  0  0  0  0  0  0  0  0  0  0
    9.5473   -4.5374   25.4413 C   0  0  0  0  0  0  0  0  0  0  0  0
   10.6577   -3.5521   25.6562 C   0  0  0  0  0  0  0  0  0  0  0  0
   11.9567   -4.0048   26.2546 C   0  0  0  0  0  0  0  0  0  0  0  0
   13.0670   -3.0194   26.4695 C   0  0  0  0  0  0  0  0  0  0  0  0
   12.8785   -1.5815   26.0861 C   0  0  0  0  0  0  0  0  0  0  0  0
   11.5796   -1.1289   25.4878 C   0  0  0  0  0  0  0  0  0  0  0  0
   10.4692   -2.1142   25.2728 C   0  0  0  0  0  0  0  0  0  0  0  0
    7.8980    5.8158   22.9733 C   0  0  0  0  0  0  0  0  0  0  0  0
   11.4120    7.5704   22.4051 C   0  0  0  0  0  0  0  0  0  0  0  0
   10.1619    6.7836   22.1440 N   0  0  0  0  0  0  0  0  0  0  0  0
    9.1480    6.6026   23.2345 C   0  0  0  0  0  0  0  0  0  0  0  0
    9.3843    7.2084   24.5863 O   0  0  0  0  0  0  0  0  0  0  0  0
   10.0069    6.3860   21.2568 H   0  0  0  0  0  0  0  0  0  0  0  0
    9.7161    3.0076   22.2703 C   0  0  0  0  0  0  0  0  0  0  0  0
   11.1492    3.4477   22.3198 C   0  0  0  0  0  0  0  0  0  0  0  0
   12.5822    3.8880   22.3694 N   0  0  0  0  0  0  0  0  0  0  0  0
 29 30  1  0  0  0
 30 31  1  0  0  0
 31 32  2  0  0  0
 31 28  1  0  0  0
 28  1  1  0  0  0
  1  2  1  0  0  0
  3  2  1  0  0  0
  3  4  1  0  0  0
  4  5  2  0  0  0
  4  6  1  0  0  0
  6 18  1  0  0  0
 18 19  2  0  0  0
 19 20  1  0  0  0
 20 21  2  0  0  0
 21 22  1  0  0  0
 22 23  2  0  0  0
 23 24  1  0  0  0
 24 25  2  0  0  0
 25 26  1  0  0  0
 26 27  2  0  0  0
  6  7  1  0  0  0
  7  8  1  0  0  0
  8 34  1  0  0  0
 34 35  1  0  0  0
 35 36  3  0  0  0
  3  9  1  0  0  0
  9 10  2  0  0  0
 10 11  1  0  0  0
 11 12  1  0  0  0
 11 13  2  0  0  0
 13 14  1  0  0  0
 14 15  2  0  0  0
 15 16  1  0  0  0
 16 17  2  0  0  0
 16  1  1  0  0  0
  8  3  1  0  0  0
 15  9  1  0  0  0
 27 18  1  0  0  0
 27 22  1  0  0  0
 30 33  1  0  0  0
M  END
> <minimizedAffinity>
-7.70742

> <CNNscore>
0.3194929659

> <CNNaffinity>
6.2952470779

> <CNN_VS>
2.0112872124

> <CNNaffinity_variance>
0.4147295952

$$$$



 36 40  0  0  0  0  0  0  0  0999 V2000
    9.6395    0.7413   22.7236 N   0  0  0  0  0  0  0  0  0  0  0  0
    8.5184   -0.2426   22.5656 C   0  0  0  0  0  0  0  0  0  0  0  0
    8.5481   -1.5405   23.3168 C   0  0  0  0  0  0  0  0  0  0  0  0
    8.4406   -2.8718   23.9996 C   0  0  0  0  0  0  0  0  0  0  0  0
    9.0548   -3.5683   24.7832 O   0  0  0  0  0  0  0  0  0  0  0  0
    7.1637   -3.5200   23.5530 N   0  0  0  0  0  0  0  0  0  0  0  0
    6.4820   -2.5893   22.5943 C   0  0  0  0  0  0  0  0  0  0  0  0
    7.3377   -1.3660   22.4484 C   0  0  0  0  0  0  0  0  0  0  0  0
    9.6991   -1.8546   24.2262 C   0  0  0  0  0  0  0  0  0  0  0  0
    9.7288   -3.1526   24.9774 C   0  0  0  0  0  0  0  0  0  0  0  0
   10.8797   -3.4666   25.8867 C   0  0  0  0  0  0  0  0  0  0  0  0
   10.9095   -4.7646   26.6380 Cl  0  0  0  0  0  0  0  0  0  0  0  0
   12.0009   -2.4826   26.0447 C   0  0  0  0  0  0  0  0  0  0  0  0
   11.9711   -1.1847   25.2934 C   0  0  0  0  0  0  0  0  0  0  0  0
   10.8202   -0.8707   24.3842 C   0  0  0  0  0  0  0  0  0  0  0  0
   10.7904    0.4273   23.6329 C   0  0  0  0  0  0  0  0  0  0  0  0
   11.9115    1.4112   23.7909 O   0  0  0  0  0  0  0  0  0  0  0  0
    6.6574   -4.8631   23.9887 C   0  0  0  0  0  0  0  0  0  0  0  0
    7.2333   -6.1121   23.3901 C   0  0  0  0  0  0  0  0  0  0  0  0
    6.7270   -7.4551   23.8258 N   0  0  0  0  0  0  0  0  0  0  0  0
    5.6448   -7.5492   24.8601 C   0  0  0  0  0  0  0  0  0  0  0  0
    5.0689   -6.3002   25.4588 C   0  0  0  0  0  0  0  0  0  0  0  0
    3.9866   -6.3943   26.4932 C   0  0  0  0  0  0  0  0  0  0  0  0
    3.4107   -5.1453   27.0918 C   0  0  0  0  0  0  0  0  0  0  0  0
    3.9170   -3.8022   26.6561 C   0  0  0  0  0  0  0  0  0  0  0  0
    4.9992   -3.7081   25.6217 C   0  0  0  0  0  0  0  0  0  0  0  0
    5.5752   -4.9571   25.0231 C   0  0  0  0  0  0  0  0  0  0  0  0
    9.6097    2.0393   21.9723 C   0  0  0  0  0  0  0  0  0  0  0  0
    8.4507    5.5063   23.5173 C   0  0  0  0  0  0  0  0  0  0  0  0
    9.3335    4.3881   23.0478 N   0  0  0  0  0  0  0  0  0  0  0  0
    8.7269    3.1575   22.4417 C   0  0  0  0  0  0  0  0  0  0  0  0
    7.2373    3.0449   22.3050 O   0  0  0  0  0  0  0  0  0  0  0  0
   10.3112    4.4620   23.1376 H   0  0  0  0  0  0  0  0  0  0  0  0
    7.0358   -0.1768   21.5854 C   0  0  0  0  0  0  0  0  0  0  0  0
    6.9047   -0.3417   20.1003 C   0  0  0  0  0  0  0  0  0  0  0  0
    6.7736   -0.5066   18.6152 N   0  0  0  0  0  0  0  0  0  0  0  0
 29 30  1  0  0  0
 30 31  1  0  0  0
 31 32  2  0  0  0
 31 28  1  0  0  0
 28  1  1  0  0  0
  1  2  1  0  0  0
  3  2  1  0  0  0
  3  4  1  0  0  0
  4  5  2  0  0  0
  4  6  1  0  0  0
  6 18  1  0  0  0
 18 19  2  0  0  0
 19 20  1  0  0  0
 20 21  2  0  0  0
 21 22  1  0  0  0
 22 23  2  0  0  0
 23 24  1  0  0  0
 24 25  2  0  0  0
 25 26  1  0  0  0
 26 27  2  0  0  0
  6  7  1  0  0  0
  7  8  1  0  0  0
  8 34  1  0  0  0
 34 35  1  0  0  0
 35 36  3  0  0  0
  3  9  1  0  0  0
  9 10  2  0  0  0
 10 11  1  0  0  0
 11 12  1  0  0  0
 11 13  2  0  0  0
 13 14  1  0  0  0
 14 15  2  0  0  0
 15 16  1  0  0  0
 16 17  2  0  0  0
 16  1  1  0  0  0
  8  3  1  0  0  0
 15  9  1  0  0  0
 27 18  1  0  0  0
 27 22  1  0  0  0
 30 33  1  0  0  0
M  END
> <minimizedAffinity>
-8.34244

> <CNNscore>
0.3143709600

> <CNNaffinity>
6.6054887772

> <CNN_VS>
2.0765738487

> <CNNaffinity_variance>
0.2241323888

$$$$



 36 40  0  0  0  0  0  0  0  0999 V2000
    4.8647    2.0665   21.5759 N   0  0  0  0  0  0  0  0  0  0  0  0
    5.9488    1.0341   21.4816 C   0  0  0  0  0  0  0  0  0  0  0  0
    6.3531    0.2577   22.6996 C   0  0  0  0  0  0  0  0  0  0  0  0
    6.8616   -0.5923   23.8261 C   0  0  0  0  0  0  0  0  0  0  0  0
    6.6719   -0.7768   25.0120 O   0  0  0  0  0  0  0  0  0  0  0  0
    7.9419   -1.4812   23.2850 N   0  0  0  0  0  0  0  0  0  0  0  0
    8.1010   -1.1807   21.8241 C   0  0  0  0  0  0  0  0  0  0  0  0
    7.1191   -0.1060   21.4623 C   0  0  0  0  0  0  0  0  0  0  0  0
    5.6732    0.5136   24.0121 C   0  0  0  0  0  0  0  0  0  0  0  0
    6.0775   -0.2628   25.2301 C   0  0  0  0  0  0  0  0  0  0  0  0
    5.3977   -0.0069   26.5424 C   0  0  0  0  0  0  0  0  0  0  0  0
    5.8019   -0.7834   27.7606 Cl  0  0  0  0  0  0  0  0  0  0  0  0
    4.3135    1.0254   26.6367 C   0  0  0  0  0  0  0  0  0  0  0  0
    3.9092    1.8018   25.4187 C   0  0  0  0  0  0  0  0  0  0  0  0
    4.5891    1.5459   24.1064 C   0  0  0  0  0  0  0  0  0  0  0  0
    4.1848    2.3224   22.8882 C   0  0  0  0  0  0  0  0  0  0  0  0
    3.1007    3.3547   22.9825 O   0  0  0  0  0  0  0  0  0  0  0  0
    8.7255   -2.4930   24.0675 C   0  0  0  0  0  0  0  0  0  0  0  0
    8.1367   -3.8438   24.3482 C   0  0  0  0  0  0  0  0  0  0  0  0
    8.9202   -4.8556   25.1307 N   0  0  0  0  0  0  0  0  0  0  0  0
   10.2926   -4.5167   25.6324 C   0  0  0  0  0  0  0  0  0  0  0  0
   10.8813   -3.1659   25.3517 C   0  0  0  0  0  0  0  0  0  0  0  0
   12.2538   -2.8270   25.8535 C   0  0  0  0  0  0  0  0  0  0  0  0
   12.8425   -1.4762   25.5727 C   0  0  0  0  0  0  0  0  0  0  0  0
   12.0589   -0.4643   24.7903 C   0  0  0  0  0  0  0  0  0  0  0  0
   10.6866   -0.8033   24.2885 C   0  0  0  0  0  0  0  0  0  0  0  0
   10.0978   -2.1541   24.5692 C   0  0  0  0  0  0  0  0  0  0  0  0
    4.4604    2.8429   20.3578 C   0  0  0  0  0  0  0  0  0  0  0  0
    0.9694    4.6447   19.7951 C   0  0  0  0  0  0  0  0  0  0  0  0
    2.4225    4.4340   20.1020 N   0  0  0  0  0  0  0  0  0  0  0  0
    3.0073    3.0537   20.0508 C   0  0  0  0  0  0  0  0  0  0  0  0
    2.1391    1.8840   19.6926 O   0  0  0  0  0  0  0  0  0  0  0  0
    2.9923    5.2016   20.3371 H   0  0  0  0  0  0  0  0  0  0  0  0
    6.9354    0.4988   20.1020 C   0  0  0  0  0  0  0  0  0  0  0  0
    6.3727   -0.3273   18.9836 C   0  0  0  0  0  0  0  0  0  0  0  0
    5.8100   -1.1535   17.8652 N   0  0  0  0  0  0  0  0  0  0  0  0
 29 30  1  0  0  0
 30 31  1  0  0  0
 31 32  2  0  0  0
 31 28  1  0  0  0
 28  1  1  0  0  0
  1  2  1  0  0  0
  3  2  1  0  0  0
  3  4  1  0  0  0
  4  5  2  0  0  0
  4  6  1  0  0  0
  6 18  1  0  0  0
 18 19  2  0  0  0
 19 20  1  0  0  0
 20 21  2  0  0  0
 21 22  1  0  0  0
 22 23  2  0  0  0
 23 24  1  0  0  0
 24 25  2  0  0  0
 25 26  1  0  0  0
 26 27  2  0  0  0
  6  7  1  0  0  0
  7  8  1  0  0  0
  8 34  1  0  0  0
 34 35  1  0  0  0
 35 36  3  0  0  0
  3  9  1  0  0  0
  9 10  2  0  0  0
 10 11  1  0  0  0
 11 12  1  0  0  0
 11 13  2  0  0  0
 13 14  1  0  0  0
 14 15  2  0  0  0
 15 16  1  0  0  0
 16 17  2  0  0  0
 16  1  1  0  0  0
  8  3  1  0  0  0
 15  9  1  0  0  0
 27 18  1  0  0  0
 27 22  1  0  0  0
 30 33  1  0  0  0
M  END
> <minimizedAffinity>
-7.83576

> <CNNscore>
0.3126765192

> <CNNaffinity>
6.3389382362

> <CNN_VS>
1.9820371866

> <CNNaffinity_variance>
0.1552844048

$$$$



 36 40  0  0  0  0  0  0  0  0999 V2000
    5.1182    1.3000   21.5461 N   0  0  0  0  0  0  0  0  0  0  0  0
    5.9974    0.1133   21.8084 C   0  0  0  0  0  0  0  0  0  0  0  0
    7.4093    0.3142   22.2733 C   0  0  0  0  0  0  0  0  0  0  0  0
    8.8344    0.3586   22.7394 C   0  0  0  0  0  0  0  0  0  0  0  0
    9.6919    1.1666   23.0360 O   0  0  0  0  0  0  0  0  0  0  0  0
    9.3237   -1.0534   22.8697 N   0  0  0  0  0  0  0  0  0  0  0  0
    8.2010   -1.9704   22.4842 C   0  0  0  0  0  0  0  0  0  0  0  0
    7.0179   -1.1252   22.1157 C   0  0  0  0  0  0  0  0  0  0  0  0
    7.9420    1.7017   22.4760 C   0  0  0  0  0  0  0  0  0  0  0  0
    9.3539    1.9026   22.9410 C   0  0  0  0  0  0  0  0  0  0  0  0
    9.8865    3.2901   23.1436 C   0  0  0  0  0  0  0  0  0  0  0  0
   11.2984    3.4910   23.6086 Cl  0  0  0  0  0  0  0  0  0  0  0  0
    9.0073    4.4767   22.8813 C   0  0  0  0  0  0  0  0  0  0  0  0
    7.5954    4.2759   22.4164 C   0  0  0  0  0  0  0  0  0  0  0  0
    7.0628    2.8884   22.2137 C   0  0  0  0  0  0  0  0  0  0  0  0
    5.6508    2.6875   21.7487 C   0  0  0  0  0  0  0  0  0  0  0  0
    4.7716    3.8741   21.4864 O   0  0  0  0  0  0  0  0  0  0  0  0
   10.6949   -1.4743   23.3085 C   0  0  0  0  0  0  0  0  0  0  0  0
   11.8877   -1.1455   22.4604 C   0  0  0  0  0  0  0  0  0  0  0  0
   13.2589   -1.5665   22.8992 N   0  0  0  0  0  0  0  0  0  0  0  0
   13.4374   -2.3162   24.1860 C   0  0  0  0  0  0  0  0  0  0  0  0
   12.2446   -2.6450   25.0341 C   0  0  0  0  0  0  0  0  0  0  0  0
   12.4231   -3.3948   26.3210 C   0  0  0  0  0  0  0  0  0  0  0  0
   11.2303   -3.7235   27.1691 C   0  0  0  0  0  0  0  0  0  0  0  0
    9.8590   -3.3026   26.7303 C   0  0  0  0  0  0  0  0  0  0  0  0
    9.6806   -2.5529   25.4434 C   0  0  0  0  0  0  0  0  0  0  0  0
   10.8734   -2.2241   24.5953 C   0  0  0  0  0  0  0  0  0  0  0  0
    3.7063    1.0991   21.0811 C   0  0  0  0  0  0  0  0  0  0  0  0
    1.4724    4.0137   19.5762 C   0  0  0  0  0  0  0  0  0  0  0  0
    2.0815    3.0580   20.5588 N   0  0  0  0  0  0  0  0  0  0  0  0
    3.0971    2.0547   20.0984 C   0  0  0  0  0  0  0  0  0  0  0  0
    3.5036    2.0072   18.6553 O   0  0  0  0  0  0  0  0  0  0  0  0
    1.8147    3.0892   21.5060 H   0  0  0  0  0  0  0  0  0  0  0  0
    5.6784   -1.6307   21.6680 C   0  0  0  0  0  0  0  0  0  0  0  0
    5.3630   -3.0947   21.7518 C   0  0  0  0  0  0  0  0  0  0  0  0
    5.0475   -4.5588   21.8357 N   0  0  0  0  0  0  0  0  0  0  0  0
 29 30  1  0  0  0
 30 31  1  0  0  0
 31 32  2  0  0  0
 31 28  1  0  0  0
 28  1  1  0  0  0
  1  2  1  0  0  0
  3  2  1  0  0  0
  3  4  1  0  0  0
  4  5  2  0  0  0
  4  6  1  0  0  0
  6 18  1  0  0  0
 18 19  2  0  0  0
 19 20  1  0  0  0
 20 21  2  0  0  0
 21 22  1  0  0  0
 22 23  2  0  0  0
 23 24  1  0  0  0
 24 25  2  0  0  0
 25 26  1  0  0  0
 26 27  2  0  0  0
  6  7  1  0  0  0
  7  8  1  0  0  0
  8 34  1  0  0  0
 34 35  1  0  0  0
 35 36  3  0  0  0
  3  9  1  0  0  0
  9 10  2  0  0  0
 10 11  1  0  0  0
 11 12  1  0  0  0
 11 13  2  0  0  0
 13 14  1  0  0  0
 14 15  2  0  0  0
 15 16  1  0  0  0
 16 17  2  0  0  0
 16  1  1  0  0  0
  8  3  1  0  0  0
 15  9  1  0  0  0
 27 18  1  0  0  0
 27 22  1  0  0  0
 30 33  1  0  0  0
M  END
> <minimizedAffinity>
-7.47283

> <CNNscore>
0.3090266883

> <CNNaffinity>
6.6261177063

> <CNN_VS>
2.0476472378

> <CNNaffinity_variance>
0.2621373534

$$$$



 36 40  0  0  0  0  0  0  0  0999 V2000
   10.5149    0.9840   23.0143 N   0  0  0  0  0  0  0  0  0  0  0  0
    9.1179    0.4697   23.1986 C   0  0  0  0  0  0  0  0  0  0  0  0
    8.8676   -0.7261   24.0689 C   0  0  0  0  0  0  0  0  0  0  0  0
    8.4652   -1.9052   24.9041 C   0  0  0  0  0  0  0  0  0  0  0  0
    8.9622   -2.7520   25.6198 O   0  0  0  0  0  0  0  0  0  0  0  0
    6.9766   -2.0594   24.8017 N   0  0  0  0  0  0  0  0  0  0  0  0
    6.4591   -0.9755   23.9031 C   0  0  0  0  0  0  0  0  0  0  0  0
    7.6278   -0.1515   23.4502 C   0  0  0  0  0  0  0  0  0  0  0  0
   10.0143   -1.4077   24.7549 C   0  0  0  0  0  0  0  0  0  0  0  0
    9.7640   -2.6034   25.6252 C   0  0  0  0  0  0  0  0  0  0  0  0
   10.9107   -3.2849   26.3112 C   0  0  0  0  0  0  0  0  0  0  0  0
   10.6604   -4.4808   27.1815 Cl  0  0  0  0  0  0  0  0  0  0  0  0
   12.3077   -2.7707   26.1269 C   0  0  0  0  0  0  0  0  0  0  0  0
   12.5580   -1.5749   25.2567 C   0  0  0  0  0  0  0  0  0  0  0  0
   11.4113   -0.8934   24.5707 C   0  0  0  0  0  0  0  0  0  0  0  0
   11.6616    0.3025   23.7003 C   0  0  0  0  0  0  0  0  0  0  0  0
   13.0586    0.8167   23.5161 O   0  0  0  0  0  0  0  0  0  0  0  0
    6.1507   -3.1126   25.4789 C   0  0  0  0  0  0  0  0  0  0  0  0
    5.8368   -4.3939   24.7649 C   0  0  0  0  0  0  0  0  0  0  0  0
    5.0109   -5.4470   25.4421 N   0  0  0  0  0  0  0  0  0  0  0  0
    4.4987   -5.2189   26.8334 C   0  0  0  0  0  0  0  0  0  0  0  0
    4.8126   -3.9376   27.5474 C   0  0  0  0  0  0  0  0  0  0  0  0
    4.3004   -3.7095   28.9388 C   0  0  0  0  0  0  0  0  0  0  0  0
    4.6142   -2.4281   29.6527 C   0  0  0  0  0  0  0  0  0  0  0  0
    5.4402   -1.3750   28.9755 C   0  0  0  0  0  0  0  0  0  0  0  0
    5.9523   -1.6031   27.5842 C   0  0  0  0  0  0  0  0  0  0  0  0
    5.6385   -2.8844   26.8702 C   0  0  0  0  0  0  0  0  0  0  0  0
   10.7652    2.1798   22.1440 C   0  0  0  0  0  0  0  0  0  0  0  0
    9.6323    5.7904   23.3398 C   0  0  0  0  0  0  0  0  0  0  0  0
    9.5869    4.4187   22.7346 N   0  0  0  0  0  0  0  0  0  0  0  0
   10.8107    3.5515   22.7492 C   0  0  0  0  0  0  0  0  0  0  0  0
   12.0800    4.0561   23.3691 O   0  0  0  0  0  0  0  0  0  0  0  0
    8.7538    4.0876   22.3277 H   0  0  0  0  0  0  0  0  0  0  0  0
    7.5672    1.0382   22.5387 C   0  0  0  0  0  0  0  0  0  0  0  0
    7.1381    0.8686   21.1116 C   0  0  0  0  0  0  0  0  0  0  0  0
    6.7088    0.6990   19.6844 N   0  0  0  0  0  0  0  0  0  0  0  0
 29 30  1  0  0  0
 30 31  1  0  0  0
 31 32  2  0  0  0
 31 28  1  0  0  0
 28  1  1  0  0  0
  1  2  1  0  0  0
  3  2  1  0  0  0
  3  4  1  0  0  0
  4  5  2  0  0  0
  4  6  1  0  0  0
  6 18  1  0  0  0
 18 19  2  0  0  0
 19 20  1  0  0  0
 20 21  2  0  0  0
 21 22  1  0  0  0
 22 23  2  0  0  0
 23 24  1  0  0  0
 24 25  2  0  0  0
 25 26  1  0  0  0
 26 27  2  0  0  0
  6  7  1  0  0  0
  7  8  1  0  0  0
  8 34  1  0  0  0
 34 35  1  0  0  0
 35 36  3  0  0  0
  3  9  1  0  0  0
  9 10  2  0  0  0
 10 11  1  0  0  0
 11 12  1  0  0  0
 11 13  2  0  0  0
 13 14  1  0  0  0
 14 15  2  0  0  0
 15 16  1  0  0  0
 16 17  2  0  0  0
 16  1  1  0  0  0
  8  3  1  0  0  0
 15  9  1  0  0  0
 27 18  1  0  0  0
 27 22  1  0  0  0
 30 33  1  0  0  0
M  END
> <minimizedAffinity>
-7.57798

> <CNNscore>
0.2904248536

> <CNNaffinity>
6.5993323326

> <CNN_VS>
1.9166101217

> <CNNaffinity_variance>
0.1297915280

$$$$



 36 40  0  0  0  0  0  0  0  0999 V2000
    5.4372    2.3941   22.2166 N   0  0  0  0  0  0  0  0  0  0  0  0
    6.1965    1.1379   22.5254 C   0  0  0  0  0  0  0  0  0  0  0  0
    7.6524    1.2093   22.8794 C   0  0  0  0  0  0  0  0  0  0  0  0
    9.1040    1.1245   23.2473 C   0  0  0  0  0  0  0  0  0  0  0  0
   10.0653    1.8482   23.4162 O   0  0  0  0  0  0  0  0  0  0  0  0
    9.4422   -0.3199   23.4697 N   0  0  0  0  0  0  0  0  0  0  0  0
    8.1996   -1.1277   23.2392 C   0  0  0  0  0  0  0  0  0  0  0  0
    7.0934   -0.1826   22.8743 C   0  0  0  0  0  0  0  0  0  0  0  0
    8.3489    2.5371   22.9247 C   0  0  0  0  0  0  0  0  0  0  0  0
    9.8048    2.6085   23.2787 C   0  0  0  0  0  0  0  0  0  0  0  0
   10.5013    3.9362   23.3240 C   0  0  0  0  0  0  0  0  0  0  0  0
   11.9572    4.0078   23.6780 Cl  0  0  0  0  0  0  0  0  0  0  0  0
    9.7419    5.1924   23.0152 C   0  0  0  0  0  0  0  0  0  0  0  0
    8.2861    5.1210   22.6612 C   0  0  0  0  0  0  0  0  0  0  0  0
    7.5896    3.7933   22.6159 C   0  0  0  0  0  0  0  0  0  0  0  0
    6.1337    3.7218   22.2619 C   0  0  0  0  0  0  0  0  0  0  0  0
    5.3743    4.9780   21.9532 O   0  0  0  0  0  0  0  0  0  0  0  0
   10.7870   -0.8613   23.8550 C   0  0  0  0  0  0  0  0  0  0  0  0
   12.0198   -0.3796   23.1491 C   0  0  0  0  0  0  0  0  0  0  0  0
   13.3646   -0.9211   23.5344 N   0  0  0  0  0  0  0  0  0  0  0  0
   13.4766   -1.9442   24.6255 C   0  0  0  0  0  0  0  0  0  0  0  0
   12.2438   -2.4259   25.3314 C   0  0  0  0  0  0  0  0  0  0  0  0
   12.3558   -3.4491   26.4226 C   0  0  0  0  0  0  0  0  0  0  0  0
   11.1230   -3.9308   27.1284 C   0  0  0  0  0  0  0  0  0  0  0  0
    9.7782   -3.3893   26.7431 C   0  0  0  0  0  0  0  0  0  0  0  0
    9.6662   -2.3662   25.6520 C   0  0  0  0  0  0  0  0  0  0  0  0
   10.8990   -1.8845   24.9461 C   0  0  0  0  0  0  0  0  0  0  0  0
    3.9812    2.3225   21.8626 C   0  0  0  0  0  0  0  0  0  0  0  0
    4.1838    1.3164   18.0290 C   0  0  0  0  0  0  0  0  0  0  0  0
    4.6003    1.7194   19.4125 N   0  0  0  0  0  0  0  0  0  0  0  0
    3.5648    1.9195   20.4791 C   0  0  0  0  0  0  0  0  0  0  0  0
    2.1127    1.7167   20.1622 O   0  0  0  0  0  0  0  0  0  0  0  0
    5.5533    1.8525   19.6205 H   0  0  0  0  0  0  0  0  0  0  0  0
    5.6769   -0.5627   22.5597 C   0  0  0  0  0  0  0  0  0  0  0  0
    5.3934   -1.7817   21.7329 C   0  0  0  0  0  0  0  0  0  0  0  0
    5.1098   -3.0007   20.9060 N   0  0  0  0  0  0  0  0  0  0  0  0
 29 30  1  0  0  0
 30 31  1  0  0  0
 31 32  2  0  0  0
 31 28  1  0  0  0
 28  1  1  0  0  0
  1  2  1  0  0  0
  3  2  1  0  0  0
  3  4  1  0  0  0
  4  5  2  0  0  0
  4  6  1  0  0  0
  6 18  1  0  0  0
 18 19  2  0  0  0
 19 20  1  0  0  0
 20 21  2  0  0  0
 21 22  1  0  0  0
 22 23  2  0  0  0
 23 24  1  0  0  0
 24 25  2  0  0  0
 25 26  1  0  0  0
 26 27  2  0  0  0
  6  7  1  0  0  0
  7  8  1  0  0  0
  8 34  1  0  0  0
 34 35  1  0  0  0
 35 36  3  0  0  0
  3  9  1  0  0  0
  9 10  2  0  0  0
 10 11  1  0  0  0
 11 12  1  0  0  0
 11 13  2  0  0  0
 13 14  1  0  0  0
 14 15  2  0  0  0
 15 16  1  0  0  0
 16 17  2  0  0  0
 16  1  1  0  0  0
  8  3  1  0  0  0
 15  9  1  0  0  0
 27 18  1  0  0  0
 27 22  1  0  0  0
 30 33  1  0  0  0
M  END
> <minimizedAffinity>
-7.16750

> <CNNscore>
0.2604516745

> <CNNaffinity>
6.4266357422

> <CNN_VS>
1.6738280058

> <CNNaffinity_variance>
0.1784867048

$$$$
