


 36 40  0  0  0  0  0  0  0  0999 V2000
  -11.4332    3.7607  -24.0131 N   0  0  0  0  0  0  0  0  0  0  0  0
  -10.0851    3.1058  -23.9518 C   0  0  0  0  0  0  0  0  0  0  0  0
   -9.9785    1.6311  -23.6992 C   0  0  0  0  0  0  0  0  0  0  0  0
   -9.7162    0.1744  -23.4559 C   0  0  0  0  0  0  0  0  0  0  0  0
  -10.3218   -0.8591  -23.2523 O   0  0  0  0  0  0  0  0  0  0  0  0
   -8.2316   -0.0391  -23.4768 N   0  0  0  0  0  0  0  0  0  0  0  0
   -7.5764    1.2856  -23.7330 C   0  0  0  0  0  0  0  0  0  0  0  0
   -8.6560    2.3179  -23.8705 C   0  0  0  0  0  0  0  0  0  0  0  0
  -11.2200    0.8112  -23.5079 C   0  0  0  0  0  0  0  0  0  0  0  0
  -11.1134   -0.6635  -23.2554 C   0  0  0  0  0  0  0  0  0  0  0  0
  -12.3549   -1.4833  -23.0641 C   0  0  0  0  0  0  0  0  0  0  0  0
  -12.2484   -2.9581  -22.8115 Cl  0  0  0  0  0  0  0  0  0  0  0  0
  -13.7030   -0.8283  -23.1254 C   0  0  0  0  0  0  0  0  0  0  0  0
  -13.8096    0.6464  -23.3779 C   0  0  0  0  0  0  0  0  0  0  0  0
  -12.5681    1.4661  -23.5692 C   0  0  0  0  0  0  0  0  0  0  0  0
  -12.6747    2.9409  -23.8218 C   0  0  0  0  0  0  0  0  0  0  0  0
  -14.0228    3.5959  -23.8831 O   0  0  0  0  0  0  0  0  0  0  0  0
   -7.5262   -1.3477  -23.2766 C   0  0  0  0  0  0  0  0  0  0  0  0
   -6.9154   -1.6746  -21.9461 C   0  0  0  0  0  0  0  0  0  0  0  0
   -6.2100   -2.9831  -21.7459 N   0  0  0  0  0  0  0  0  0  0  0  0
   -6.1153   -3.9647  -22.8762 C   0  0  0  0  0  0  0  0  0  0  0  0
   -6.7261   -3.6378  -24.2066 C   0  0  0  0  0  0  0  0  0  0  0  0
   -6.6314   -4.6194  -25.3369 C   0  0  0  0  0  0  0  0  0  0  0  0
   -7.2422   -4.2924  -26.6673 C   0  0  0  0  0  0  0  0  0  0  0  0
   -7.9476   -2.9839  -26.8675 C   0  0  0  0  0  0  0  0  0  0  0  0
   -8.0423   -2.0023  -25.7373 C   0  0  0  0  0  0  0  0  0  0  0  0
   -7.4315   -2.3292  -24.4068 C   0  0  0  0  0  0  0  0  0  0  0  0
  -11.5398    5.2355  -24.2656 C   0  0  0  0  0  0  0  0  0  0  0  0
  -13.9561    6.4209  -27.1822 C   0  0  0  0  0  0  0  0  0  0  0  0
  -13.4814    5.9205  -25.8501 N   0  0  0  0  0  0  0  0  0  0  0  0
  -12.0144    5.7359  -25.5977 C   0  0  0  0  0  0  0  0  0  0  0  0
  -11.0220    6.0517  -26.6773 O   0  0  0  0  0  0  0  0  0  0  0  0
  -14.1328    5.7133  -25.1416 H   0  0  0  0  0  0  0  0  0  0  0  0
   -8.4494    3.7802  -24.1332 C   0  0  0  0  0  0  0  0  0  0  0  0
   -7.0643    4.3162  -24.3429 C   0  0  0  0  0  0  0  0  0  0  0  0
   -5.6791    4.8522  -24.5526 N   0  0  0  0  0  0  0  0  0  0  0  0
 29 30  1  0  0  0
 30 31  1  0  0  0
 31 32  2  0  0  0
 31 28  1  0  0  0
 28  1  1  0  0  0
  1  2  1  0  0  0
  3  2  1  0  0  0
  3  4  1  0  0  0
  4  5  2  0  0  0
  4  6  1  0  0  0
  6 18  1  0  0  0
 18 19  2  0  0  0
 19 20  1  0  0  0
 20 21  2  0  0  0
 21 22  1  0  0  0
 22 23  2  0  0  0
 23 24  1  0  0  0
 24 25  2  0  0  0
 25 26  1  0  0  0
 26 27  2  0  0  0
  6  7  1  0  0  0
  7  8  1  0  0  0
  8 34  1  0  0  0
 34 35  1  0  0  0
 35 36  3  0  0  0
  3  9  1  0  0  0
  9 10  2  0  0  0
 10 11  1  0  0  0
 11 12  1  0  0  0
 11 13  2  0  0  0
 13 14  1  0  0  0
 14 15  2  0  0  0
 15 16  1  0  0  0
 16 17  2  0  0  0
 16  1  1  0  0  0
  8  3  1  0  0  0
 15  9  1  0  0  0
 27 18  1  0  0  0
 27 22  1  0  0  0
 30 33  1  0  0  0
M  END
> <minimizedAffinity>
-6.81401

> <CNNscore>
0.4560788572

> <CNNaffinity>
6.5893659592

> <CNN_VS>
3.0052704811

> <CNNaffinity_variance>
0.3190591633

$$$$



 36 40  0  0  0  0  0  0  0  0999 V2000
   -9.2210    2.6855  -24.5497 N   0  0  0  0  0  0  0  0  0  0  0  0
   -8.2939    1.5093  -24.6333 C   0  0  0  0  0  0  0  0  0  0  0  0
   -8.7965    0.1337  -24.3096 C   0  0  0  0  0  0  0  0  0  0  0  0
   -9.1542   -1.2934  -24.0172 C   0  0  0  0  0  0  0  0  0  0  0  0
  -10.1081   -1.9619  -23.6714 O   0  0  0  0  0  0  0  0  0  0  0  0
   -7.9277   -2.1311  -24.2272 N   0  0  0  0  0  0  0  0  0  0  0  0
   -6.8120   -1.2217  -24.6493 C   0  0  0  0  0  0  0  0  0  0  0  0
   -7.3490    0.1780  -24.7002 C   0  0  0  0  0  0  0  0  0  0  0  0
  -10.2264   -0.0659  -23.9021 C   0  0  0  0  0  0  0  0  0  0  0  0
  -10.7290   -1.4415  -23.5784 C   0  0  0  0  0  0  0  0  0  0  0  0
  -12.1587   -1.6410  -23.1710 C   0  0  0  0  0  0  0  0  0  0  0  0
  -12.6614   -3.0167  -22.8472 Cl  0  0  0  0  0  0  0  0  0  0  0  0
  -13.0858   -0.4647  -23.0873 C   0  0  0  0  0  0  0  0  0  0  0  0
  -12.5832    0.9109  -23.4111 C   0  0  0  0  0  0  0  0  0  0  0  0
  -11.1535    1.1104  -23.8185 C   0  0  0  0  0  0  0  0  0  0  0  0
  -10.6508    2.4861  -24.1423 C   0  0  0  0  0  0  0  0  0  0  0  0
  -11.5779    3.6623  -24.0587 O   0  0  0  0  0  0  0  0  0  0  0  0
   -7.8335   -3.6172  -24.0467 C   0  0  0  0  0  0  0  0  0  0  0  0
   -7.2095   -4.1840  -22.8059 C   0  0  0  0  0  0  0  0  0  0  0  0
   -7.1153   -5.6701  -22.6255 N   0  0  0  0  0  0  0  0  0  0  0  0
   -7.6450   -6.5894  -23.6858 C   0  0  0  0  0  0  0  0  0  0  0  0
   -8.2689   -6.0226  -24.9265 C   0  0  0  0  0  0  0  0  0  0  0  0
   -8.7986   -6.9420  -25.9869 C   0  0  0  0  0  0  0  0  0  0  0  0
   -9.4226   -6.3752  -27.2276 C   0  0  0  0  0  0  0  0  0  0  0  0
   -9.5168   -4.8890  -27.4081 C   0  0  0  0  0  0  0  0  0  0  0  0
   -8.9871   -3.9697  -26.3478 C   0  0  0  0  0  0  0  0  0  0  0  0
   -8.3632   -4.5365  -25.1070 C   0  0  0  0  0  0  0  0  0  0  0  0
   -8.7183    4.0612  -24.8735 C   0  0  0  0  0  0  0  0  0  0  0  0
   -6.5902    5.9356  -22.0972 C   0  0  0  0  0  0  0  0  0  0  0  0
   -6.9592    4.9923  -23.2036 N   0  0  0  0  0  0  0  0  0  0  0  0
   -8.3493    5.0045  -23.7671 C   0  0  0  0  0  0  0  0  0  0  0  0
   -9.3703    5.9600  -23.2244 O   0  0  0  0  0  0  0  0  0  0  0  0
   -6.2891    4.3652  -23.5598 H   0  0  0  0  0  0  0  0  0  0  0  0
   -6.5744    1.4064  -25.0759 C   0  0  0  0  0  0  0  0  0  0  0  0
   -5.5647    1.9765  -24.1244 C   0  0  0  0  0  0  0  0  0  0  0  0
   -4.5550    2.5467  -23.1729 N   0  0  0  0  0  0  0  0  0  0  0  0
 29 30  1  0  0  0
 30 31  1  0  0  0
 31 32  2  0  0  0
 31 28  1  0  0  0
 28  1  1  0  0  0
  1  2  1  0  0  0
  3  2  1  0  0  0
  3  4  1  0  0  0
  4  5  2  0  0  0
  4  6  1  0  0  0
  6 18  1  0  0  0
 18 19  2  0  0  0
 19 20  1  0  0  0
 20 21  2  0  0  0
 21 22  1  0  0  0
 22 23  2  0  0  0
 23 24  1  0  0  0
 24 25  2  0  0  0
 25 26  1  0  0  0
 26 27  2  0  0  0
  6  7  1  0  0  0
  7  8  1  0  0  0
  8 34  1  0  0  0
 34 35  1  0  0  0
 35 36  3  0  0  0
  3  9  1  0  0  0
  9 10  2  0  0  0
 10 11  1  0  0  0
 11 12  1  0  0  0
 11 13  2  0  0  0
 13 14  1  0  0  0
 14 15  2  0  0  0
 15 16  1  0  0  0
 16 17  2  0  0  0
 16  1  1  0  0  0
  8  3  1  0  0  0
 15  9  1  0  0  0
 27 18  1  0  0  0
 27 22  1  0  0  0
 30 33  1  0  0  0
M  END
> <minimizedAffinity>
-6.91279

> <CNNscore>
0.3313696682

> <CNNaffinity>
6.3457717896

> <CNN_VS>
2.1027963161

> <CNNaffinity_variance>
0.1324250847

$$$$



 36 40  0  0  0  0  0  0  0  0999 V2000
  -11.5809    3.9499  -24.0031 N   0  0  0  0  0  0  0  0  0  0  0  0
  -10.1950    3.3856  -23.8989 C   0  0  0  0  0  0  0  0  0  0  0  0
   -9.9989    1.9192  -23.6517 C   0  0  0  0  0  0  0  0  0  0  0  0
   -9.6483    0.4813  -23.4081 C   0  0  0  0  0  0  0  0  0  0  0  0
  -10.1902   -0.5919  -23.2319 O   0  0  0  0  0  0  0  0  0  0  0  0
   -8.1530    0.3672  -23.3786 N   0  0  0  0  0  0  0  0  0  0  0  0
   -7.5793    1.7347  -23.6040 C   0  0  0  0  0  0  0  0  0  0  0  0
   -8.7201    2.6939  -23.7727 C   0  0  0  0  0  0  0  0  0  0  0  0
  -11.1887    1.0170  -23.5086 C   0  0  0  0  0  0  0  0  0  0  0  0
  -10.9925   -0.4494  -23.2613 C   0  0  0  0  0  0  0  0  0  0  0  0
  -12.1823   -1.3515  -23.1183 C   0  0  0  0  0  0  0  0  0  0  0  0
  -11.9862   -2.8180  -22.8710 Cl  0  0  0  0  0  0  0  0  0  0  0  0
  -13.5682   -0.7873  -23.2225 C   0  0  0  0  0  0  0  0  0  0  0  0
  -13.7644    0.6791  -23.4698 C   0  0  0  0  0  0  0  0  0  0  0  0
  -12.5746    1.5813  -23.6128 C   0  0  0  0  0  0  0  0  0  0  0  0
  -12.7707    3.0477  -23.8601 C   0  0  0  0  0  0  0  0  0  0  0  0
  -14.1566    3.6120  -23.9643 O   0  0  0  0  0  0  0  0  0  0  0  0
   -7.3690   -0.8931  -23.1619 C   0  0  0  0  0  0  0  0  0  0  0  0
   -7.1150   -1.8252  -24.3094 C   0  0  0  0  0  0  0  0  0  0  0  0
   -6.3310   -3.0855  -24.0926 N   0  0  0  0  0  0  0  0  0  0  0  0
   -5.8010   -3.4137  -22.7284 C   0  0  0  0  0  0  0  0  0  0  0  0
   -6.0549   -2.4816  -21.5808 C   0  0  0  0  0  0  0  0  0  0  0  0
   -5.5248   -2.8099  -20.2165 C   0  0  0  0  0  0  0  0  0  0  0  0
   -5.7788   -1.8778  -19.0690 C   0  0  0  0  0  0  0  0  0  0  0  0
   -6.5628   -0.6175  -19.2858 C   0  0  0  0  0  0  0  0  0  0  0  0
   -7.0929   -0.2893  -20.6501 C   0  0  0  0  0  0  0  0  0  0  0  0
   -6.8389   -1.2213  -21.7976 C   0  0  0  0  0  0  0  0  0  0  0  0
  -11.7770    5.4164  -24.2504 C   0  0  0  0  0  0  0  0  0  0  0  0
  -13.9721    6.4385  -27.3947 C   0  0  0  0  0  0  0  0  0  0  0  0
  -13.5959    5.9524  -26.0265 N   0  0  0  0  0  0  0  0  0  0  0  0
  -12.1533    5.9025  -25.6187 C   0  0  0  0  0  0  0  0  0  0  0  0
  -11.0868    6.3387  -26.5792 O   0  0  0  0  0  0  0  0  0  0  0  0
  -14.2958    5.6661  -25.3961 H   0  0  0  0  0  0  0  0  0  0  0  0
   -8.6027    4.1688  -24.0193 C   0  0  0  0  0  0  0  0  0  0  0  0
   -7.7599    5.0161  -23.1128 C   0  0  0  0  0  0  0  0  0  0  0  0
   -6.9170    5.8634  -22.2064 N   0  0  0  0  0  0  0  0  0  0  0  0
 29 30  1  0  0  0
 30 31  1  0  0  0
 31 32  2  0  0  0
 31 28  1  0  0  0
 28  1  1  0  0  0
  1  2  1  0  0  0
  3  2  1  0  0  0
  3  4  1  0  0  0
  4  5  2  0  0  0
  4  6  1  0  0  0
  6 18  1  0  0  0
 18 19  2  0  0  0
 19 20  1  0  0  0
 20 21  2  0  0  0
 21 22  1  0  0  0
 22 23  2  0  0  0
 23 24  1  0  0  0
 24 25  2  0  0  0
 25 26  1  0  0  0
 26 27  2  0  0  0
  6  7  1  0  0  0
  7  8  1  0  0  0
  8 34  1  0  0  0
 34 35  1  0  0  0
 35 36  3  0  0  0
  3  9  1  0  0  0
  9 10  2  0  0  0
 10 11  1  0  0  0
 11 12  1  0  0  0
 11 13  2  0  0  0
 13 14  1  0  0  0
 14 15  2  0  0  0
 15 16  1  0  0  0
 16 17  2  0  0  0
 16  1  1  0  0  0
  8  3  1  0  0  0
 15  9  1  0  0  0
 27 18  1  0  0  0
 27 22  1  0  0  0
 30 33  1  0  0  0
M  END
> <minimizedAffinity>
-7.81593

> <CNNscore>
0.3074846864

> <CNNaffinity>
6.3933625221

> <CNN_VS>
1.9658610821

> <CNNaffinity_variance>
0.0878996775

$$$$



 36 40  0  0  0  0  0  0  0  0999 V2000
   -6.7029   -0.0630  -23.3197 N   0  0  0  0  0  0  0  0  0  0  0  0
   -7.2053    1.3395  -23.4945 C   0  0  0  0  0  0  0  0  0  0  0  0
   -8.6777    1.5993  -23.6144 C   0  0  0  0  0  0  0  0  0  0  0  0
  -10.1139    2.0113  -23.7475 C   0  0  0  0  0  0  0  0  0  0  0  0
  -11.2250    1.5201  -23.7680 O   0  0  0  0  0  0  0  0  0  0  0  0
  -10.1559    3.5027  -23.9022 N   0  0  0  0  0  0  0  0  0  0  0  0
   -8.7457    4.0125  -23.8646 C   0  0  0  0  0  0  0  0  0  0  0  0
   -7.8321    2.8361  -23.6868 C   0  0  0  0  0  0  0  0  0  0  0  0
   -9.6479    0.4565  -23.5595 C   0  0  0  0  0  0  0  0  0  0  0  0
  -11.1203    0.7163  -23.6795 C   0  0  0  0  0  0  0  0  0  0  0  0
  -12.0903   -0.4265  -23.6246 C   0  0  0  0  0  0  0  0  0  0  0  0
  -13.5629   -0.1667  -23.7445 Cl  0  0  0  0  0  0  0  0  0  0  0  0
  -11.5880   -1.8290  -23.4498 C   0  0  0  0  0  0  0  0  0  0  0  0
  -10.1155   -2.0888  -23.3298 C   0  0  0  0  0  0  0  0  0  0  0  0
   -9.1455   -0.9460  -23.3847 C   0  0  0  0  0  0  0  0  0  0  0  0
   -7.6730   -1.2058  -23.2648 C   0  0  0  0  0  0  0  0  0  0  0  0
   -7.1706   -2.6083  -23.0900 O   0  0  0  0  0  0  0  0  0  0  0  0
  -11.3912    4.3376  -24.0657 C   0  0  0  0  0  0  0  0  0  0  0  0
  -12.1956    4.7307  -22.8621 C   0  0  0  0  0  0  0  0  0  0  0  0
  -13.4309    5.5657  -23.0256 N   0  0  0  0  0  0  0  0  0  0  0  0
  -13.8619    6.0076  -24.3927 C   0  0  0  0  0  0  0  0  0  0  0  0
  -13.0575    5.6146  -25.5963 C   0  0  0  0  0  0  0  0  0  0  0  0
  -13.4886    6.0566  -26.9634 C   0  0  0  0  0  0  0  0  0  0  0  0
  -12.6842    5.6635  -28.1669 C   0  0  0  0  0  0  0  0  0  0  0  0
  -11.4488    4.8285  -28.0034 C   0  0  0  0  0  0  0  0  0  0  0  0
  -11.0178    4.3866  -26.6363 C   0  0  0  0  0  0  0  0  0  0  0  0
  -11.8222    4.7796  -25.4328 C   0  0  0  0  0  0  0  0  0  0  0  0
   -5.2304   -0.3228  -23.1998 C   0  0  0  0  0  0  0  0  0  0  0  0
   -4.4389    0.5199  -19.4033 C   0  0  0  0  0  0  0  0  0  0  0  0
   -5.1786    0.0892  -20.6351 N   0  0  0  0  0  0  0  0  0  0  0  0
   -4.4907    0.1080  -21.9679 C   0  0  0  0  0  0  0  0  0  0  0  0
   -3.0632    0.5575  -22.0690 O   0  0  0  0  0  0  0  0  0  0  0  0
   -6.1155   -0.2058  -20.5688 H   0  0  0  0  0  0  0  0  0  0  0  0
   -6.3357    2.8876  -23.5971 C   0  0  0  0  0  0  0  0  0  0  0  0
   -5.6546    4.1422  -23.1368 C   0  0  0  0  0  0  0  0  0  0  0  0
   -4.9736    5.3969  -22.6765 N   0  0  0  0  0  0  0  0  0  0  0  0
 29 30  1  0  0  0
 30 31  1  0  0  0
 31 32  2  0  0  0
 31 28  1  0  0  0
 28  1  1  0  0  0
  1  2  1  0  0  0
  3  2  1  0  0  0
  3  4  1  0  0  0
  4  5  2  0  0  0
  4  6  1  0  0  0
  6 18  1  0  0  0
 18 19  2  0  0  0
 19 20  1  0  0  0
 20 21  2  0  0  0
 21 22  1  0  0  0
 22 23  2  0  0  0
 23 24  1  0  0  0
 24 25  2  0  0  0
 25 26  1  0  0  0
 26 27  2  0  0  0
  6  7  1  0  0  0
  7  8  1  0  0  0
  8 34  1  0  0  0
 34 35  1  0  0  0
 35 36  3  0  0  0
  3  9  1  0  0  0
  9 10  2  0  0  0
 10 11  1  0  0  0
 11 12  1  0  0  0
 11 13  2  0  0  0
 13 14  1  0  0  0
 14 15  2  0  0  0
 15 16  1  0  0  0
 16 17  2  0  0  0
 16  1  1  0  0  0
  8  3  1  0  0  0
 15  9  1  0  0  0
 27 18  1  0  0  0
 27 22  1  0  0  0
 30 33  1  0  0  0
M  END
> <minimizedAffinity>
-7.08591

> <CNNscore>
0.2827169895

> <CNNaffinity>
6.2190203667

> <CNN_VS>
1.7582226992

> <CNNaffinity_variance>
0.1277147233

$$$$



 36 40  0  0  0  0  0  0  0  0999 V2000
   -8.7881   -2.0923  -23.4038 N   0  0  0  0  0  0  0  0  0  0  0  0
  -10.0969   -1.3598  -23.4241 C   0  0  0  0  0  0  0  0  0  0  0  0
  -10.1166    0.1394  -23.4691 C   0  0  0  0  0  0  0  0  0  0  0  0
  -10.2931    1.6283  -23.5136 C   0  0  0  0  0  0  0  0  0  0  0  0
   -9.6270    2.6440  -23.5449 O   0  0  0  0  0  0  0  0  0  0  0  0
  -11.7643    1.9208  -23.5205 N   0  0  0  0  0  0  0  0  0  0  0  0
  -12.4971    0.6126  -23.4803 C   0  0  0  0  0  0  0  0  0  0  0  0
  -11.4788   -0.4883  -23.4485 C   0  0  0  0  0  0  0  0  0  0  0  0
   -8.8276    0.9061  -23.4937 C   0  0  0  0  0  0  0  0  0  0  0  0
   -8.8473    2.4052  -23.5387 C   0  0  0  0  0  0  0  0  0  0  0  0
   -7.5583    3.1718  -23.5633 C   0  0  0  0  0  0  0  0  0  0  0  0
   -7.5780    4.6711  -23.6083 Cl  0  0  0  0  0  0  0  0  0  0  0  0
   -6.2495    2.4393  -23.5430 C   0  0  0  0  0  0  0  0  0  0  0  0
   -6.2297    0.9401  -23.4980 C   0  0  0  0  0  0  0  0  0  0  0  0
   -7.5188    0.1735  -23.4734 C   0  0  0  0  0  0  0  0  0  0  0  0
   -7.4991   -1.3257  -23.4284 C   0  0  0  0  0  0  0  0  0  0  0  0
   -6.1903   -2.0583  -23.4081 O   0  0  0  0  0  0  0  0  0  0  0  0
  -12.3923    3.2824  -23.5605 C   0  0  0  0  0  0  0  0  0  0  0  0
  -13.2703    3.7369  -22.4324 C   0  0  0  0  0  0  0  0  0  0  0  0
  -13.8983    5.0985  -22.4725 N   0  0  0  0  0  0  0  0  0  0  0  0
  -13.6484    6.0056  -23.6407 C   0  0  0  0  0  0  0  0  0  0  0  0
  -12.7704    5.5511  -24.7688 C   0  0  0  0  0  0  0  0  0  0  0  0
  -12.5205    6.4583  -25.9370 C   0  0  0  0  0  0  0  0  0  0  0  0
  -11.6426    6.0037  -27.0651 C   0  0  0  0  0  0  0  0  0  0  0  0
  -11.0145    4.6421  -27.0250 C   0  0  0  0  0  0  0  0  0  0  0  0
  -11.2644    3.7350  -25.8569 C   0  0  0  0  0  0  0  0  0  0  0  0
  -12.1424    4.1895  -24.7287 C   0  0  0  0  0  0  0  0  0  0  0  0
   -8.7684   -3.5916  -23.3588 C   0  0  0  0  0  0  0  0  0  0  0  0
   -8.4923   -6.5510  -25.9886 C   0  0  0  0  0  0  0  0  0  0  0  0
   -8.3391   -5.7607  -24.7229 N   0  0  0  0  0  0  0  0  0  0  0  0
   -8.9216   -4.3819  -24.6245 C   0  0  0  0  0  0  0  0  0  0  0  0
   -9.6574   -3.7935  -25.7917 O   0  0  0  0  0  0  0  0  0  0  0  0
   -7.8562   -6.1468  -23.9568 H   0  0  0  0  0  0  0  0  0  0  0  0
  -11.7714   -1.9588  -23.4040 C   0  0  0  0  0  0  0  0  0  0  0  0
  -12.8164   -2.4876  -22.4670 C   0  0  0  0  0  0  0  0  0  0  0  0
  -13.8615   -3.0164  -21.5299 N   0  0  0  0  0  0  0  0  0  0  0  0
 29 30  1  0  0  0
 30 31  1  0  0  0
 31 32  2  0  0  0
 31 28  1  0  0  0
 28  1  1  0  0  0
  1  2  1  0  0  0
  3  2  1  0  0  0
  3  4  1  0  0  0
  4  5  2  0  0  0
  4  6  1  0  0  0
  6 18  1  0  0  0
 18 19  2  0  0  0
 19 20  1  0  0  0
 20 21  2  0  0  0
 21 22  1  0  0  0
 22 23  2  0  0  0
 23 24  1  0  0  0
 24 25  2  0  0  0
 25 26  1  0  0  0
 26 27  2  0  0  0
  6  7  1  0  0  0
  7  8  1  0  0  0
  8 34  1  0  0  0
 34 35  1  0  0  0
 35 36  3  0  0  0
  3  9  1  0  0  0
  9 10  2  0  0  0
 10 11  1  0  0  0
 11 12  1  0  0  0
 11 13  2  0  0  0
 13 14  1  0  0  0
 14 15  2  0  0  0
 15 16  1  0  0  0
 16 17  2  0  0  0
 16  1  1  0  0  0
  8  3  1  0  0  0
 15  9  1  0  0  0
 27 18  1  0  0  0
 27 22  1  0  0  0
 30 33  1  0  0  0
M  END
> <minimizedAffinity>
-7.51343

> <CNNscore>
0.2548772991

> <CNNaffinity>
6.1657776833

> <CNN_VS>
1.5715167522

> <CNNaffinity_variance>
0.5089088678

$$$$



 36 40  0  0  0  0  0  0  0  0999 V2000
   -7.3178   -3.2384  -26.5816 N   0  0  0  0  0  0  0  0  0  0  0  0
   -6.8749   -3.4034  -25.1580 C   0  0  0  0  0  0  0  0  0  0  0  0
   -6.8160   -2.2124  -24.2480 C   0  0  0  0  0  0  0  0  0  0  0  0
   -6.7076   -1.1197  -23.2261 C   0  0  0  0  0  0  0  0  0  0  0  0
   -6.8843    0.0779  -23.1217 O   0  0  0  0  0  0  0  0  0  0  0  0
   -6.2283   -1.7310  -21.9429 N   0  0  0  0  0  0  0  0  0  0  0  0
   -6.0406   -3.2015  -22.1717 C   0  0  0  0  0  0  0  0  0  0  0  0
   -6.4038   -3.4990  -23.5963 C   0  0  0  0  0  0  0  0  0  0  0  0
   -7.2001   -0.8564  -24.7617 C   0  0  0  0  0  0  0  0  0  0  0  0
   -7.1412    0.3346  -23.8517 C   0  0  0  0  0  0  0  0  0  0  0  0
   -7.5253    1.6906  -24.3654 C   0  0  0  0  0  0  0  0  0  0  0  0
   -7.4664    2.8817  -23.4555 Cl  0  0  0  0  0  0  0  0  0  0  0  0
   -7.9682    1.8555  -25.7890 C   0  0  0  0  0  0  0  0  0  0  0  0
   -8.0270    0.6645  -26.6989 C   0  0  0  0  0  0  0  0  0  0  0  0
   -7.6430   -0.6914  -26.1853 C   0  0  0  0  0  0  0  0  0  0  0  0
   -7.7018   -1.8825  -27.0952 C   0  0  0  0  0  0  0  0  0  0  0  0
   -8.1447   -1.7176  -28.5188 O   0  0  0  0  0  0  0  0  0  0  0  0
   -5.9804   -1.0000  -20.6567 C   0  0  0  0  0  0  0  0  0  0  0  0
   -6.9121   -1.1871  -19.4961 C   0  0  0  0  0  0  0  0  0  0  0  0
   -6.6641   -0.4561  -18.2099 N   0  0  0  0  0  0  0  0  0  0  0  0
   -5.4845    0.4618  -18.0844 C   0  0  0  0  0  0  0  0  0  0  0  0
   -4.5528    0.6488  -19.2450 C   0  0  0  0  0  0  0  0  0  0  0  0
   -3.3731    1.5669  -19.1194 C   0  0  0  0  0  0  0  0  0  0  0  0
   -2.4415    1.7538  -20.2800 C   0  0  0  0  0  0  0  0  0  0  0  0
   -2.6894    1.0229  -21.5662 C   0  0  0  0  0  0  0  0  0  0  0  0
   -3.8690    0.1049  -21.6918 C   0  0  0  0  0  0  0  0  0  0  0  0
   -4.8007   -0.0821  -20.5312 C   0  0  0  0  0  0  0  0  0  0  0  0
   -7.3766   -4.4295  -27.4915 C   0  0  0  0  0  0  0  0  0  0  0  0
  -10.7382   -6.1971  -26.3403 C   0  0  0  0  0  0  0  0  0  0  0  0
   -9.5175   -5.3255  -26.3238 N   0  0  0  0  0  0  0  0  0  0  0  0
   -8.5973   -5.3011  -27.5080 C   0  0  0  0  0  0  0  0  0  0  0  0
   -8.8977   -6.1484  -28.7089 O   0  0  0  0  0  0  0  0  0  0  0  0
   -9.3204   -4.7694  -25.5356 H   0  0  0  0  0  0  0  0  0  0  0  0
   -6.3621   -4.8466  -24.2538 C   0  0  0  0  0  0  0  0  0  0  0  0
   -6.8776   -6.0525  -23.5260 C   0  0  0  0  0  0  0  0  0  0  0  0
   -7.3930   -7.2585  -22.7981 N   0  0  0  0  0  0  0  0  0  0  0  0
 29 30  1  0  0  0
 30 31  1  0  0  0
 31 32  2  0  0  0
 31 28  1  0  0  0
 28  1  1  0  0  0
  1  2  1  0  0  0
  3  2  1  0  0  0
  3  4  1  0  0  0
  4  5  2  0  0  0
  4  6  1  0  0  0
  6 18  1  0  0  0
 18 19  2  0  0  0
 19 20  1  0  0  0
 20 21  2  0  0  0
 21 22  1  0  0  0
 22 23  2  0  0  0
 23 24  1  0  0  0
 24 25  2  0  0  0
 25 26  1  0  0  0
 26 27  2  0  0  0
  6  7  1  0  0  0
  7  8  1  0  0  0
  8 34  1  0  0  0
 34 35  1  0  0  0
 35 36  3  0  0  0
  3  9  1  0  0  0
  9 10  2  0  0  0
 10 11  1  0  0  0
 11 12  1  0  0  0
 11 13  2  0  0  0
 13 14  1  0  0  0
 14 15  2  0  0  0
 15 16  1  0  0  0
 16 17  2  0  0  0
 16  1  1  0  0  0
  8  3  1  0  0  0
 15  9  1  0  0  0
 27 18  1  0  0  0
 27 22  1  0  0  0
 30 33  1  0  0  0
M  END
> <minimizedAffinity>
-7.42954

> <CNNscore>
0.2246803492

> <CNNaffinity>
6.1657433510

> <CNN_VS>
1.3853213787

> <CNNaffinity_variance>
0.0621064082

$$$$



 36 40  0  0  0  0  0  0  0  0999 V2000
   -3.7266    2.8653  -21.8197 N   0  0  0  0  0  0  0  0  0  0  0  0
   -4.7120    1.7873  -21.4780 C   0  0  0  0  0  0  0  0  0  0  0  0
   -5.7607    1.3870  -22.4729 C   0  0  0  0  0  0  0  0  0  0  0  0
   -6.8593    0.8829  -23.3612 C   0  0  0  0  0  0  0  0  0  0  0  0
   -7.3225    1.0733  -24.4683 O   0  0  0  0  0  0  0  0  0  0  0  0
   -7.5982   -0.1918  -22.6202 N   0  0  0  0  0  0  0  0  0  0  0  0
   -6.9562   -0.3520  -21.2741 C   0  0  0  0  0  0  0  0  0  0  0  0
   -5.8206    0.6238  -21.1831 C   0  0  0  0  0  0  0  0  0  0  0  0
   -5.8240    2.0648  -23.8097 C   0  0  0  0  0  0  0  0  0  0  0  0
   -6.8727    1.6645  -24.8046 C   0  0  0  0  0  0  0  0  0  0  0  0
   -6.9359    2.3422  -26.1412 C   0  0  0  0  0  0  0  0  0  0  0  0
   -7.9847    1.9419  -27.1363 Cl  0  0  0  0  0  0  0  0  0  0  0  0
   -5.9505    3.4203  -26.4829 C   0  0  0  0  0  0  0  0  0  0  0  0
   -4.9018    3.8205  -25.4880 C   0  0  0  0  0  0  0  0  0  0  0  0
   -4.8386    3.1428  -24.1513 C   0  0  0  0  0  0  0  0  0  0  0  0
   -3.7898    3.5431  -23.1563 C   0  0  0  0  0  0  0  0  0  0  0  0
   -2.8044    4.6211  -23.4980 O   0  0  0  0  0  0  0  0  0  0  0  0
   -8.7728   -0.9698  -23.1351 C   0  0  0  0  0  0  0  0  0  0  0  0
   -8.5944   -2.3915  -23.5790 C   0  0  0  0  0  0  0  0  0  0  0  0
   -9.7690   -3.1695  -24.0939 N   0  0  0  0  0  0  0  0  0  0  0  0
  -11.1219   -2.5257  -24.1648 C   0  0  0  0  0  0  0  0  0  0  0  0
  -11.3003   -1.1041  -23.7209 C   0  0  0  0  0  0  0  0  0  0  0  0
  -12.6534   -0.4604  -23.7919 C   0  0  0  0  0  0  0  0  0  0  0  0
  -12.8317    0.9613  -23.3480 C   0  0  0  0  0  0  0  0  0  0  0  0
  -11.6571    1.7393  -22.8331 C   0  0  0  0  0  0  0  0  0  0  0  0
  -10.3041    1.0956  -22.7622 C   0  0  0  0  0  0  0  0  0  0  0  0
  -10.1258   -0.3261  -23.2061 C   0  0  0  0  0  0  0  0  0  0  0  0
   -2.6779    3.2656  -20.8246 C   0  0  0  0  0  0  0  0  0  0  0  0
    1.1961    2.4645  -20.5079 C   0  0  0  0  0  0  0  0  0  0  0  0
   -0.0906    3.2310  -20.5907 N   0  0  0  0  0  0  0  0  0  0  0  0
   -1.3912    2.4991  -20.7418 C   0  0  0  0  0  0  0  0  0  0  0  0
   -1.4050    1.0007  -20.8102 O   0  0  0  0  0  0  0  0  0  0  0  0
   -0.0815    4.2144  -20.5458 H   0  0  0  0  0  0  0  0  0  0  0  0
   -4.9055    0.8045  -20.0083 C   0  0  0  0  0  0  0  0  0  0  0  0
   -5.1632    0.0555  -18.7346 C   0  0  0  0  0  0  0  0  0  0  0  0
   -5.4210   -0.6935  -17.4609 N   0  0  0  0  0  0  0  0  0  0  0  0
 29 30  1  0  0  0
 30 31  1  0  0  0
 31 32  2  0  0  0
 31 28  1  0  0  0
 28  1  1  0  0  0
  1  2  1  0  0  0
  3  2  1  0  0  0
  3  4  1  0  0  0
  4  5  2  0  0  0
  4  6  1  0  0  0
  6 18  1  0  0  0
 18 19  2  0  0  0
 19 20  1  0  0  0
 20 21  2  0  0  0
 21 22  1  0  0  0
 22 23  2  0  0  0
 23 24  1  0  0  0
 24 25  2  0  0  0
 25 26  1  0  0  0
 26 27  2  0  0  0
  6  7  1  0  0  0
  7  8  1  0  0  0
  8 34  1  0  0  0
 34 35  1  0  0  0
 35 36  3  0  0  0
  3  9  1  0  0  0
  9 10  2  0  0  0
 10 11  1  0  0  0
 11 12  1  0  0  0
 11 13  2  0  0  0
 13 14  1  0  0  0
 14 15  2  0  0  0
 15 16  1  0  0  0
 16 17  2  0  0  0
 16  1  1  0  0  0
  8  3  1  0  0  0
 15  9  1  0  0  0
 27 18  1  0  0  0
 27 22  1  0  0  0
 30 33  1  0  0  0
M  END
> <minimizedAffinity>
-6.99562

> <CNNscore>
0.2082621753

> <CNNaffinity>
5.8393254280

> <CNN_VS>
1.2161105871

> <CNNaffinity_variance>
0.2991757989

$$$$



 36 40  0  0  0  0  0  0  0  0999 V2000
   -9.5012   -2.1226  -23.5793 N   0  0  0  0  0  0  0  0  0  0  0  0
   -8.1310   -2.1800  -22.9717 C   0  0  0  0  0  0  0  0  0  0  0  0
   -7.3959   -0.9107  -22.6579 C   0  0  0  0  0  0  0  0  0  0  0  0
   -6.5439    0.2681  -22.2914 C   0  0  0  0  0  0  0  0  0  0  0  0
   -6.5746    1.4825  -22.3163 O   0  0  0  0  0  0  0  0  0  0  0  0
   -5.2585   -0.2497  -21.7171 N   0  0  0  0  0  0  0  0  0  0  0  0
   -5.3162   -1.7485  -21.7287 C   0  0  0  0  0  0  0  0  0  0  0  0
   -6.6372   -2.1571  -22.3101 C   0  0  0  0  0  0  0  0  0  0  0  0
   -8.0311    0.4161  -22.9517 C   0  0  0  0  0  0  0  0  0  0  0  0
   -7.2961    1.6854  -22.6378 C   0  0  0  0  0  0  0  0  0  0  0  0
   -7.9312    3.0121  -22.9316 C   0  0  0  0  0  0  0  0  0  0  0  0
   -7.1962    4.2815  -22.6178 Cl  0  0  0  0  0  0  0  0  0  0  0  0
   -9.3015    3.0695  -23.5392 C   0  0  0  0  0  0  0  0  0  0  0  0
  -10.0365    1.8002  -23.8530 C   0  0  0  0  0  0  0  0  0  0  0  0
   -9.4013    0.4735  -23.5593 C   0  0  0  0  0  0  0  0  0  0  0  0
  -10.1364   -0.7959  -23.8731 C   0  0  0  0  0  0  0  0  0  0  0  0
  -11.5066   -0.7385  -24.4807 O   0  0  0  0  0  0  0  0  0  0  0  0
   -4.1161    0.5849  -21.2188 C   0  0  0  0  0  0  0  0  0  0  0  0
   -4.1195    1.0954  -19.8083 C   0  0  0  0  0  0  0  0  0  0  0  0
   -2.9771    1.9300  -19.3099 N   0  0  0  0  0  0  0  0  0  0  0  0
   -1.8313    2.2541  -20.2221 C   0  0  0  0  0  0  0  0  0  0  0  0
   -1.8278    1.7436  -21.6325 C   0  0  0  0  0  0  0  0  0  0  0  0
   -0.6819    2.0677  -22.5447 C   0  0  0  0  0  0  0  0  0  0  0  0
   -0.6786    1.5572  -23.9551 C   0  0  0  0  0  0  0  0  0  0  0  0
   -1.8210    0.7226  -24.4535 C   0  0  0  0  0  0  0  0  0  0  0  0
   -2.9668    0.3985  -23.5414 C   0  0  0  0  0  0  0  0  0  0  0  0
   -2.9702    0.9090  -22.1309 C   0  0  0  0  0  0  0  0  0  0  0  0
  -10.2363   -3.3920  -23.8931 C   0  0  0  0  0  0  0  0  0  0  0  0
  -10.3999   -6.0500  -26.8356 C   0  0  0  0  0  0  0  0  0  0  0  0
  -10.5078   -5.4389  -25.4700 N   0  0  0  0  0  0  0  0  0  0  0  0
  -10.1283   -4.0032  -25.2587 C   0  0  0  0  0  0  0  0  0  0  0  0
   -9.6408   -3.1786  -26.4131 O   0  0  0  0  0  0  0  0  0  0  0  0
  -10.8278   -5.9801  -24.7124 H   0  0  0  0  0  0  0  0  0  0  0  0
   -7.1154   -3.5648  -22.5089 C   0  0  0  0  0  0  0  0  0  0  0  0
   -6.2155   -4.7170  -22.1737 C   0  0  0  0  0  0  0  0  0  0  0  0
   -5.3156   -5.8693  -21.8386 N   0  0  0  0  0  0  0  0  0  0  0  0
 29 30  1  0  0  0
 30 31  1  0  0  0
 31 32  2  0  0  0
 31 28  1  0  0  0
 28  1  1  0  0  0
  1  2  1  0  0  0
  3  2  1  0  0  0
  3  4  1  0  0  0
  4  5  2  0  0  0
  4  6  1  0  0  0
  6 18  1  0  0  0
 18 19  2  0  0  0
 19 20  1  0  0  0
 20 21  2  0  0  0
 21 22  1  0  0  0
 22 23  2  0  0  0
 23 24  1  0  0  0
 24 25  2  0  0  0
 25 26  1  0  0  0
 26 27  2  0  0  0
  6  7  1  0  0  0
  7  8  1  0  0  0
  8 34  1  0  0  0
 34 35  1  0  0  0
 35 36  3  0  0  0
  3  9  1  0  0  0
  9 10  2  0  0  0
 10 11  1  0  0  0
 11 12  1  0  0  0
 11 13  2  0  0  0
 13 14  1  0  0  0
 14 15  2  0  0  0
 15 16  1  0  0  0
 16 17  2  0  0  0
 16  1  1  0  0  0
  8  3  1  0  0  0
 15  9  1  0  0  0
 27 18  1  0  0  0
 27 22  1  0  0  0
 30 33  1  0  0  0
M  END
> <minimizedAffinity>
-7.28696

> <CNNscore>
0.1841114163

> <CNNaffinity>
6.0297498703

> <CNN_VS>
1.1101458073

> <CNNaffinity_variance>
0.1572856754

$$$$



 36 40  0  0  0  0  0  0  0  0999 V2000
   -6.9036   -0.3092  -22.3224 N   0  0  0  0  0  0  0  0  0  0  0  0
   -7.2318    1.0882  -22.7579 C   0  0  0  0  0  0  0  0  0  0  0  0
   -8.6323    1.4369  -23.1666 C   0  0  0  0  0  0  0  0  0  0  0  0
   -9.9801    1.9314  -23.6010 C   0  0  0  0  0  0  0  0  0  0  0  0
  -11.1152    1.5260  -23.7547 O   0  0  0  0  0  0  0  0  0  0  0  0
   -9.8512    3.3852  -23.9471 N   0  0  0  0  0  0  0  0  0  0  0  0
   -8.4236    3.7893  -23.7265 C   0  0  0  0  0  0  0  0  0  0  0  0
   -7.6703    2.5852  -23.2442 C   0  0  0  0  0  0  0  0  0  0  0  0
   -9.7045    0.3883  -23.1399 C   0  0  0  0  0  0  0  0  0  0  0  0
  -11.1050    0.7370  -23.5486 C   0  0  0  0  0  0  0  0  0  0  0  0
  -12.1772   -0.3116  -23.5219 C   0  0  0  0  0  0  0  0  0  0  0  0
  -13.5777    0.0371  -23.9307 Cl  0  0  0  0  0  0  0  0  0  0  0  0
  -11.8489   -1.7089  -23.0864 C   0  0  0  0  0  0  0  0  0  0  0  0
  -10.4485   -2.0577  -22.6777 C   0  0  0  0  0  0  0  0  0  0  0  0
   -9.3763   -1.0091  -22.7044 C   0  0  0  0  0  0  0  0  0  0  0  0
   -7.9758   -1.3578  -22.2957 C   0  0  0  0  0  0  0  0  0  0  0  0
   -7.6475   -2.7552  -21.8602 O   0  0  0  0  0  0  0  0  0  0  0  0
  -10.9559    4.2782  -24.4290 C   0  0  0  0  0  0  0  0  0  0  0  0
  -11.8808    4.9266  -23.4420 C   0  0  0  0  0  0  0  0  0  0  0  0
  -12.9855    5.8195  -23.9239 N   0  0  0  0  0  0  0  0  0  0  0  0
  -13.1653    6.0641  -25.3929 C   0  0  0  0  0  0  0  0  0  0  0  0
  -12.2404    5.4157  -26.3799 C   0  0  0  0  0  0  0  0  0  0  0  0
  -12.4202    5.6603  -27.8489 C   0  0  0  0  0  0  0  0  0  0  0  0
  -11.4952    5.0119  -28.8358 C   0  0  0  0  0  0  0  0  0  0  0  0
  -10.3905    4.1190  -28.3539 C   0  0  0  0  0  0  0  0  0  0  0  0
  -10.2107    3.8744  -26.8850 C   0  0  0  0  0  0  0  0  0  0  0  0
  -11.1357    4.5228  -25.8979 C   0  0  0  0  0  0  0  0  0  0  0  0
   -5.5030   -0.6579  -21.9137 C   0  0  0  0  0  0  0  0  0  0  0  0
   -5.0486   -3.6893  -19.3929 C   0  0  0  0  0  0  0  0  0  0  0  0
   -5.2915   -2.9234  -20.6596 N   0  0  0  0  0  0  0  0  0  0  0  0
   -5.2602   -1.4238  -20.6470 C   0  0  0  0  0  0  0  0  0  0  0  0
   -4.9859   -0.6900  -19.3678 O   0  0  0  0  0  0  0  0  0  0  0  0
   -5.4715   -3.4049  -21.4992 H   0  0  0  0  0  0  0  0  0  0  0  0
   -6.2111    2.5377  -22.8999 C   0  0  0  0  0  0  0  0  0  0  0  0
   -5.4697    3.8065  -22.5992 C   0  0  0  0  0  0  0  0  0  0  0  0
   -4.7283    5.0753  -22.2986 N   0  0  0  0  0  0  0  0  0  0  0  0
 29 30  1  0  0  0
 30 31  1  0  0  0
 31 32  2  0  0  0
 31 28  1  0  0  0
 28  1  1  0  0  0
  1  2  1  0  0  0
  3  2  1  0  0  0
  3  4  1  0  0  0
  4  5  2  0  0  0
  4  6  1  0  0  0
  6 18  1  0  0  0
 18 19  2  0  0  0
 19 20  1  0  0  0
 20 21  2  0  0  0
 21 22  1  0  0  0
 22 23  2  0  0  0
 23 24  1  0  0  0
 24 25  2  0  0  0
 25 26  1  0  0  0
 26 27  2  0  0  0
  6  7  1  0  0  0
  7  8  1  0  0  0
  8 34  1  0  0  0
 34 35  1  0  0  0
 35 36  3  0  0  0
  3  9  1  0  0  0
  9 10  2  0  0  0
 10 11  1  0  0  0
 11 12  1  0  0  0
 11 13  2  0  0  0
 13 14  1  0  0  0
 14 15  2  0  0  0
 15 16  1  0  0  0
 16 17  2  0  0  0
 16  1  1  0  0  0
  8  3  1  0  0  0
 15  9  1  0  0  0
 27 18  1  0  0  0
 27 22  1  0  0  0
 30 33  1  0  0  0
M  END
> <minimizedAffinity>
-6.44878

> <CNNscore>
0.1808789819

> <CNNaffinity>
6.0546660423

> <CNN_VS>
1.0951617956

> <CNNaffinity_variance>
0.1086769253

$$$$
