


 23 26  0  0  0  0  0  0  0  0999 V2000
   -7.9785   -1.9651  -21.9519 O   0  0  0  0  0  0  0  0  0  0  0  0
   -6.9351   -3.0267  -22.1378 C   0  0  0  0  0  0  0  0  0  0  0  0
   -7.1546   -4.1279  -23.1324 N   0  0  0  0  0  0  0  0  0  0  0  0
   -6.0503   -5.1373  -23.2400 C   0  0  0  0  0  0  0  0  0  0  0  0
   -5.9679   -6.3422  -24.1297 C   0  0  0  0  0  0  0  0  0  0  0  0
   -6.9696   -6.8352  -25.1315 C   0  0  0  0  0  0  0  0  0  0  0  0
   -8.3009   -6.2451  -25.4911 C   0  0  0  0  0  0  0  0  0  0  0  0
   -9.2175   -6.8390  -26.5193 S   0  0  0  0  0  0  0  0  0  0  0  0
  -10.4425   -5.9773  -26.6013 C   0  0  0  0  0  0  0  0  0  0  0  0
  -10.2830   -4.8507  -25.6238 C   0  0  0  0  0  0  0  0  0  0  0  0
   -8.9594   -5.0163  -24.9376 C   0  0  0  0  0  0  0  0  0  0  0  0
   -8.4493   -4.0740  -23.8879 C   0  0  0  0  0  0  0  0  0  0  0  0
   -5.6725   -2.9872  -21.3290 C   0  0  0  0  0  0  0  0  0  0  0  0
   -5.4535   -1.8866  -20.3336 C   0  0  0  0  0  0  0  0  0  0  0  0
   -5.8871   -2.0666  -18.9090 C   0  0  0  0  0  0  0  0  0  0  0  0
   -5.6682   -0.9661  -17.9137 N   0  0  0  0  0  0  0  0  0  0  0  0
   -5.0156    0.3145  -18.3429 C   0  0  0  0  0  0  0  0  0  0  0  0
   -4.5820    0.4946  -19.7675 C   0  0  0  0  0  0  0  0  0  0  0  0
   -3.9294    1.7751  -20.1967 C   0  0  0  0  0  0  0  0  0  0  0  0
   -3.4958    1.9551  -21.6213 C   0  0  0  0  0  0  0  0  0  0  0  0
   -3.7148    0.8546  -22.6167 C   0  0  0  0  0  0  0  0  0  0  0  0
   -4.3673   -0.4260  -22.1875 C   0  0  0  0  0  0  0  0  0  0  0  0
   -4.8009   -0.6060  -20.7629 C   0  0  0  0  0  0  0  0  0  0  0  0
  1  2  2  0  0  0
  2 13  1  0  0  0
 13 14  1  0  0  0
 14 15  2  0  0  0
 15 16  1  0  0  0
 16 17  2  0  0  0
 17 18  1  0  0  0
 18 19  2  0  0  0
 19 20  1  0  0  0
 20 21  2  0  0  0
 21 22  1  0  0  0
 22 23  2  0  0  0
  2  3  1  0  0  0
  3  4  1  0  0  0
  4  5  1  0  0  0
  5  6  1  0  0  0
  6  7  1  0  0  0
  7  8  1  0  0  0
  8  9  1  0  0  0
  9 10  2  0  0  0
 10 11  1  0  0  0
 11 12  1  0  0  0
 23 14  1  0  0  0
 12  3  1  0  0  0
 23 18  1  0  0  0
 11  7  2  0  0  0
M  END
> <minimizedAffinity>
-7.53769

> <CNNscore>
0.5600128174

> <CNNaffinity>
5.1137008667

> <CNN_VS>
2.8637380600

> <CNNaffinity_variance>
0.2720722556

$$$$



 23 26  0  0  0  0  0  0  0  0999 V2000
   -7.9871   -3.6114  -22.3147 O   0  0  0  0  0  0  0  0  0  0  0  0
   -7.5487   -2.1782  -22.3773 C   0  0  0  0  0  0  0  0  0  0  0  0
   -8.5502   -1.0995  -22.6662 N   0  0  0  0  0  0  0  0  0  0  0  0
   -8.0077    0.2984  -22.7064 C   0  0  0  0  0  0  0  0  0  0  0  0
   -8.7428    1.5797  -22.9671 C   0  0  0  0  0  0  0  0  0  0  0  0
  -10.2018    1.7796  -23.2521 C   0  0  0  0  0  0  0  0  0  0  0  0
  -11.2862    0.7475  -23.3466 C   0  0  0  0  0  0  0  0  0  0  0  0
  -12.7194    1.0791  -23.6399 S   0  0  0  0  0  0  0  0  0  0  0  0
  -13.4983   -0.2027  -23.6542 C   0  0  0  0  0  0  0  0  0  0  0  0
  -12.5465   -1.3266  -23.3697 C   0  0  0  0  0  0  0  0  0  0  0  0
  -11.1793   -0.7393  -23.1796 C   0  0  0  0  0  0  0  0  0  0  0  0
   -9.9617   -1.5614  -22.8768 C   0  0  0  0  0  0  0  0  0  0  0  0
   -6.1089   -1.8237  -22.1509 C   0  0  0  0  0  0  0  0  0  0  0  0
   -5.6958   -1.1381  -20.8823 C   0  0  0  0  0  0  0  0  0  0  0  0
   -6.3765   -1.4785  -19.5898 C   0  0  0  0  0  0  0  0  0  0  0  0
   -5.9634   -0.7929  -18.3212 N   0  0  0  0  0  0  0  0  0  0  0  0
   -4.8696    0.2333  -18.3452 C   0  0  0  0  0  0  0  0  0  0  0  0
   -4.1888    0.5738  -19.6378 C   0  0  0  0  0  0  0  0  0  0  0  0
   -3.0951    1.5999  -19.6618 C   0  0  0  0  0  0  0  0  0  0  0  0
   -2.4144    1.9404  -20.9543 C   0  0  0  0  0  0  0  0  0  0  0  0
   -2.8275    1.2547  -22.2229 C   0  0  0  0  0  0  0  0  0  0  0  0
   -3.9213    0.2286  -22.1989 C   0  0  0  0  0  0  0  0  0  0  0  0
   -4.6019   -0.1119  -20.9064 C   0  0  0  0  0  0  0  0  0  0  0  0
  1  2  2  0  0  0
  2 13  1  0  0  0
 13 14  1  0  0  0
 14 15  2  0  0  0
 15 16  1  0  0  0
 16 17  2  0  0  0
 17 18  1  0  0  0
 18 19  2  0  0  0
 19 20  1  0  0  0
 20 21  2  0  0  0
 21 22  1  0  0  0
 22 23  2  0  0  0
  2  3  1  0  0  0
  3  4  1  0  0  0
  4  5  1  0  0  0
  5  6  1  0  0  0
  6  7  1  0  0  0
  7  8  1  0  0  0
  8  9  1  0  0  0
  9 10  2  0  0  0
 10 11  1  0  0  0
 11 12  1  0  0  0
 23 14  1  0  0  0
 12  3  1  0  0  0
 23 18  1  0  0  0
 11  7  2  0  0  0
M  END
> <minimizedAffinity>
-7.12652

> <CNNscore>
0.5315278172

> <CNNaffinity>
5.2529416084

> <CNN_VS>
2.7920846939

> <CNNaffinity_variance>
0.1616279483

$$$$



 23 26  0  0  0  0  0  0  0  0999 V2000
   -5.9684   -3.4019  -21.7282 O   0  0  0  0  0  0  0  0  0  0  0  0
   -7.2386   -2.6717  -22.0496 C   0  0  0  0  0  0  0  0  0  0  0  0
   -8.1869   -3.2293  -23.0694 N   0  0  0  0  0  0  0  0  0  0  0  0
   -9.4265   -2.4215  -23.3157 C   0  0  0  0  0  0  0  0  0  0  0  0
  -10.5555   -2.7059  -24.2615 C   0  0  0  0  0  0  0  0  0  0  0  0
  -10.7237   -3.8684  -25.1945 C   0  0  0  0  0  0  0  0  0  0  0  0
   -9.8045   -5.0335  -25.4121 C   0  0  0  0  0  0  0  0  0  0  0  0
  -10.0893   -6.1408  -26.3830 S   0  0  0  0  0  0  0  0  0  0  0  0
   -8.9510   -7.1156  -26.3215 C   0  0  0  0  0  0  0  0  0  0  0  0
   -7.9625   -6.6108  -25.3126 C   0  0  0  0  0  0  0  0  0  0  0  0
   -8.4899   -5.3239  -24.7505 C   0  0  0  0  0  0  0  0  0  0  0  0
   -7.7700   -4.5211  -23.7079 C   0  0  0  0  0  0  0  0  0  0  0  0
   -7.5606   -1.3838  -21.3513 C   0  0  0  0  0  0  0  0  0  0  0  0
   -6.6304   -0.8450  -20.3051 C   0  0  0  0  0  0  0  0  0  0  0  0
   -6.7491   -1.3110  -18.8843 C   0  0  0  0  0  0  0  0  0  0  0  0
   -5.8189   -0.7722  -17.8381 N   0  0  0  0  0  0  0  0  0  0  0  0
   -4.7701    0.2326  -18.2128 C   0  0  0  0  0  0  0  0  0  0  0  0
   -4.6514    0.6987  -19.6336 C   0  0  0  0  0  0  0  0  0  0  0  0
   -3.6027    1.7035  -20.0083 C   0  0  0  0  0  0  0  0  0  0  0  0
   -3.4840    2.1694  -21.4291 C   0  0  0  0  0  0  0  0  0  0  0  0
   -4.4142    1.6306  -22.4753 C   0  0  0  0  0  0  0  0  0  0  0  0
   -5.4630    0.6258  -22.1006 C   0  0  0  0  0  0  0  0  0  0  0  0
   -5.5816    0.1599  -20.6798 C   0  0  0  0  0  0  0  0  0  0  0  0
  1  2  2  0  0  0
  2 13  1  0  0  0
 13 14  1  0  0  0
 14 15  2  0  0  0
 15 16  1  0  0  0
 16 17  2  0  0  0
 17 18  1  0  0  0
 18 19  2  0  0  0
 19 20  1  0  0  0
 20 21  2  0  0  0
 21 22  1  0  0  0
 22 23  2  0  0  0
  2  3  1  0  0  0
  3  4  1  0  0  0
  4  5  1  0  0  0
  5  6  1  0  0  0
  6  7  1  0  0  0
  7  8  1  0  0  0
  8  9  1  0  0  0
  9 10  2  0  0  0
 10 11  1  0  0  0
 11 12  1  0  0  0
 23 14  1  0  0  0
 12  3  1  0  0  0
 23 18  1  0  0  0
 11  7  2  0  0  0
M  END
> <minimizedAffinity>
-7.36877

> <CNNscore>
0.4875610471

> <CNNaffinity>
5.0984439850

> <CNN_VS>
2.4858026505

> <CNNaffinity_variance>
0.2598904967

$$$$



 23 26  0  0  0  0  0  0  0  0999 V2000
   -8.2352   -0.4100  -20.7732 O   0  0  0  0  0  0  0  0  0  0  0  0
   -7.5836   -0.5769  -22.1140 C   0  0  0  0  0  0  0  0  0  0  0  0
   -6.1566   -0.1590  -22.3117 N   0  0  0  0  0  0  0  0  0  0  0  0
   -5.6020   -0.3686  -23.6894 C   0  0  0  0  0  0  0  0  0  0  0  0
   -4.2267   -0.0577  -24.2012 C   0  0  0  0  0  0  0  0  0  0  0  0
   -3.0663    0.5395  -23.4616 C   0  0  0  0  0  0  0  0  0  0  0  0
   -2.9948    0.9734  -22.0276 C   0  0  0  0  0  0  0  0  0  0  0  0
   -1.7645    1.5612  -21.4024 S   0  0  0  0  0  0  0  0  0  0  0  0
   -2.0751    1.8683  -19.9675 C   0  0  0  0  0  0  0  0  0  0  0  0
   -3.4975    1.4703  -19.7057 C   0  0  0  0  0  0  0  0  0  0  0  0
   -4.0659    0.9172  -20.9789 C   0  0  0  0  0  0  0  0  0  0  0  0
   -5.4731    0.4133  -21.1053 C   0  0  0  0  0  0  0  0  0  0  0  0
   -8.3591   -1.1616  -23.2572 C   0  0  0  0  0  0  0  0  0  0  0  0
   -9.8414   -1.3564  -23.1361 C   0  0  0  0  0  0  0  0  0  0  0  0
  -10.3949   -2.7087  -22.7971 C   0  0  0  0  0  0  0  0  0  0  0  0
  -11.8773   -2.9035  -22.6760 N   0  0  0  0  0  0  0  0  0  0  0  0
  -12.8061   -1.7461  -22.8939 C   0  0  0  0  0  0  0  0  0  0  0  0
  -12.2527   -0.3937  -23.2329 C   0  0  0  0  0  0  0  0  0  0  0  0
  -13.1815    0.7637  -23.4508 C   0  0  0  0  0  0  0  0  0  0  0  0
  -12.6280    2.1160  -23.7898 C   0  0  0  0  0  0  0  0  0  0  0  0
  -11.1457    2.3108  -23.9108 C   0  0  0  0  0  0  0  0  0  0  0  0
  -10.2168    1.1534  -23.6930 C   0  0  0  0  0  0  0  0  0  0  0  0
  -10.7703   -0.1989  -23.3540 C   0  0  0  0  0  0  0  0  0  0  0  0
  1  2  2  0  0  0
  2 13  1  0  0  0
 13 14  1  0  0  0
 14 15  2  0  0  0
 15 16  1  0  0  0
 16 17  2  0  0  0
 17 18  1  0  0  0
 18 19  2  0  0  0
 19 20  1  0  0  0
 20 21  2  0  0  0
 21 22  1  0  0  0
 22 23  2  0  0  0
  2  3  1  0  0  0
  3  4  1  0  0  0
  4  5  1  0  0  0
  5  6  1  0  0  0
  6  7  1  0  0  0
  7  8  1  0  0  0
  8  9  1  0  0  0
  9 10  2  0  0  0
 10 11  1  0  0  0
 11 12  1  0  0  0
 23 14  1  0  0  0
 12  3  1  0  0  0
 23 18  1  0  0  0
 11  7  2  0  0  0
M  END
> <minimizedAffinity>
-6.76271

> <CNNscore>
0.4327436388

> <CNNaffinity>
4.8979811668

> <CNN_VS>
2.1195702553

> <CNNaffinity_variance>
0.1860575229

$$$$



 23 26  0  0  0  0  0  0  0  0999 V2000
   -5.2616   -3.7183  -19.0715 O   0  0  0  0  0  0  0  0  0  0  0  0
   -5.4814   -2.7925  -20.2311 C   0  0  0  0  0  0  0  0  0  0  0  0
   -5.6724   -3.3504  -21.6104 N   0  0  0  0  0  0  0  0  0  0  0  0
   -5.8846   -2.3393  -22.6978 C   0  0  0  0  0  0  0  0  0  0  0  0
   -6.1027   -2.5737  -24.1632 C   0  0  0  0  0  0  0  0  0  0  0  0
   -6.1625   -3.8771  -24.9032 C   0  0  0  0  0  0  0  0  0  0  0  0
   -6.0189   -5.2680  -24.3605 C   0  0  0  0  0  0  0  0  0  0  0  0
   -6.0992   -6.5000  -25.2125 S   0  0  0  0  0  0  0  0  0  0  0  0
   -5.9100   -7.6924  -24.3224 C   0  0  0  0  0  0  0  0  0  0  0  0
   -5.7128   -7.1974  -22.9202 C   0  0  0  0  0  0  0  0  0  0  0  0
   -5.7801   -5.6991  -22.9437 C   0  0  0  0  0  0  0  0  0  0  0  0
   -5.6259   -4.8457  -21.7198 C   0  0  0  0  0  0  0  0  0  0  0  0
   -5.5103   -1.3090  -20.0115 C   0  0  0  0  0  0  0  0  0  0  0  0
   -6.5161   -0.4632  -20.7347 C   0  0  0  0  0  0  0  0  0  0  0  0
   -7.9261   -0.9486  -20.8970 C   0  0  0  0  0  0  0  0  0  0  0  0
   -8.9319   -0.1028  -21.6202 N   0  0  0  0  0  0  0  0  0  0  0  0
   -8.5278    1.2284  -22.1810 C   0  0  0  0  0  0  0  0  0  0  0  0
   -7.1177    1.7138  -22.0187 C   0  0  0  0  0  0  0  0  0  0  0  0
   -6.7136    3.0450  -22.5796 C   0  0  0  0  0  0  0  0  0  0  0  0
   -5.3036    3.5304  -22.4172 C   0  0  0  0  0  0  0  0  0  0  0  0
   -4.2978    2.6846  -21.6941 C   0  0  0  0  0  0  0  0  0  0  0  0
   -4.7020    1.3534  -21.1332 C   0  0  0  0  0  0  0  0  0  0  0  0
   -6.1119    0.8680  -21.2956 C   0  0  0  0  0  0  0  0  0  0  0  0
  1  2  2  0  0  0
  2 13  1  0  0  0
 13 14  1  0  0  0
 14 15  2  0  0  0
 15 16  1  0  0  0
 16 17  2  0  0  0
 17 18  1  0  0  0
 18 19  2  0  0  0
 19 20  1  0  0  0
 20 21  2  0  0  0
 21 22  1  0  0  0
 22 23  2  0  0  0
  2  3  1  0  0  0
  3  4  1  0  0  0
  4  5  1  0  0  0
  5  6  1  0  0  0
  6  7  1  0  0  0
  7  8  1  0  0  0
  8  9  1  0  0  0
  9 10  2  0  0  0
 10 11  1  0  0  0
 11 12  1  0  0  0
 23 14  1  0  0  0
 12  3  1  0  0  0
 23 18  1  0  0  0
 11  7  2  0  0  0
M  END
> <minimizedAffinity>
-6.39766

> <CNNscore>
0.3634402752

> <CNNaffinity>
5.1923584938

> <CNN_VS>
1.8871121407

> <CNNaffinity_variance>
0.0663869232

$$$$



 23 26  0  0  0  0  0  0  0  0999 V2000
   -5.4555   -3.8017  -21.2927 O   0  0  0  0  0  0  0  0  0  0  0  0
   -6.3716   -3.0020  -22.1710 C   0  0  0  0  0  0  0  0  0  0  0  0
   -6.7080   -3.4927  -23.5479 N   0  0  0  0  0  0  0  0  0  0  0  0
   -7.6319   -2.6185  -24.3428 C   0  0  0  0  0  0  0  0  0  0  0  0
   -8.1520   -2.8284  -25.7340 C   0  0  0  0  0  0  0  0  0  0  0  0
   -7.8766   -3.9645  -26.6740 C   0  0  0  0  0  0  0  0  0  0  0  0
   -7.0131   -5.1713  -26.4548 C   0  0  0  0  0  0  0  0  0  0  0  0
   -6.8181   -6.2457  -27.4831 S   0  0  0  0  0  0  0  0  0  0  0  0
   -5.8963   -7.2784  -26.9056 C   0  0  0  0  0  0  0  0  0  0  0  0
   -5.5215   -6.8423  -25.5202 C   0  0  0  0  0  0  0  0  0  0  0  0
   -6.2117   -5.5399  -25.2415 C   0  0  0  0  0  0  0  0  0  0  0  0
   -6.0759   -4.7930  -23.9479 C   0  0  0  0  0  0  0  0  0  0  0  0
   -6.9512   -1.7115  -21.6723 C   0  0  0  0  0  0  0  0  0  0  0  0
   -6.3124   -0.9992  -20.5171 C   0  0  0  0  0  0  0  0  0  0  0  0
   -6.9106   -1.1071  -19.1459 C   0  0  0  0  0  0  0  0  0  0  0  0
   -6.2718   -0.3948  -17.9907 N   0  0  0  0  0  0  0  0  0  0  0  0
   -5.0347    0.4255  -18.2067 C   0  0  0  0  0  0  0  0  0  0  0  0
   -4.4363    0.5334  -19.5780 C   0  0  0  0  0  0  0  0  0  0  0  0
   -3.1992    1.3536  -19.7941 C   0  0  0  0  0  0  0  0  0  0  0  0
   -2.6009    1.4615  -21.1653 C   0  0  0  0  0  0  0  0  0  0  0  0
   -3.2398    0.7492  -22.3205 C   0  0  0  0  0  0  0  0  0  0  0  0
   -4.4769   -0.0710  -22.1045 C   0  0  0  0  0  0  0  0  0  0  0  0
   -5.0752   -0.1789  -20.7332 C   0  0  0  0  0  0  0  0  0  0  0  0
  1  2  2  0  0  0
  2 13  1  0  0  0
 13 14  1  0  0  0
 14 15  2  0  0  0
 15 16  1  0  0  0
 16 17  2  0  0  0
 17 18  1  0  0  0
 18 19  2  0  0  0
 19 20  1  0  0  0
 20 21  2  0  0  0
 21 22  1  0  0  0
 22 23  2  0  0  0
  2  3  1  0  0  0
  3  4  1  0  0  0
  4  5  1  0  0  0
  5  6  1  0  0  0
  6  7  1  0  0  0
  7  8  1  0  0  0
  8  9  1  0  0  0
  9 10  2  0  0  0
 10 11  1  0  0  0
 11 12  1  0  0  0
 23 14  1  0  0  0
 12  3  1  0  0  0
 23 18  1  0  0  0
 11  7  2  0  0  0
M  END
> <minimizedAffinity>
-6.83914

> <CNNscore>
0.3220154643

> <CNNaffinity>
4.9917426109

> <CNN_VS>
1.6074182987

> <CNNaffinity_variance>
0.1139351353

$$$$



 23 26  0  0  0  0  0  0  0  0999 V2000
   -7.5093    2.1274  -24.7285 O   0  0  0  0  0  0  0  0  0  0  0  0
   -7.6927    1.0578  -23.6929 C   0  0  0  0  0  0  0  0  0  0  0  0
   -6.7215    0.9403  -22.5558 N   0  0  0  0  0  0  0  0  0  0  0  0
   -6.9961   -0.1622  -21.5766 C   0  0  0  0  0  0  0  0  0  0  0  0
   -6.2211   -0.5364  -20.3481 C   0  0  0  0  0  0  0  0  0  0  0  0
   -4.9801    0.0995  -19.7953 C   0  0  0  0  0  0  0  0  0  0  0  0
   -4.2076    1.2667  -20.3345 C   0  0  0  0  0  0  0  0  0  0  0  0
   -2.9715    1.8117  -19.6827 S   0  0  0  0  0  0  0  0  0  0  0  0
   -2.4852    2.9681  -20.5050 C   0  0  0  0  0  0  0  0  0  0  0  0
   -3.4208    3.1378  -21.6652 C   0  0  0  0  0  0  0  0  0  0  0  0
   -4.4854    2.0862  -21.5598 C   0  0  0  0  0  0  0  0  0  0  0  0
   -5.6041    1.9411  -22.5484 C   0  0  0  0  0  0  0  0  0  0  0  0
   -8.8473    0.1057  -23.7944 C   0  0  0  0  0  0  0  0  0  0  0  0
  -10.2539    0.6235  -23.7352 C   0  0  0  0  0  0  0  0  0  0  0  0
  -10.5389    2.0594  -24.0621 C   0  0  0  0  0  0  0  0  0  0  0  0
  -11.9454    2.5772  -24.0029 N   0  0  0  0  0  0  0  0  0  0  0  0
  -13.0670    1.6591  -23.6167 C   0  0  0  0  0  0  0  0  0  0  0  0
  -12.7820    0.2231  -23.2898 C   0  0  0  0  0  0  0  0  0  0  0  0
  -13.9036   -0.6950  -22.9036 C   0  0  0  0  0  0  0  0  0  0  0  0
  -13.6186   -2.1309  -22.5766 C   0  0  0  0  0  0  0  0  0  0  0  0
  -12.2120   -2.6487  -22.6359 C   0  0  0  0  0  0  0  0  0  0  0  0
  -11.0905   -1.7306  -23.0220 C   0  0  0  0  0  0  0  0  0  0  0  0
  -11.3755   -0.2947  -23.3490 C   0  0  0  0  0  0  0  0  0  0  0  0
  1  2  2  0  0  0
  2 13  1  0  0  0
 13 14  1  0  0  0
 14 15  2  0  0  0
 15 16  1  0  0  0
 16 17  2  0  0  0
 17 18  1  0  0  0
 18 19  2  0  0  0
 19 20  1  0  0  0
 20 21  2  0  0  0
 21 22  1  0  0  0
 22 23  2  0  0  0
  2  3  1  0  0  0
  3  4  1  0  0  0
  4  5  1  0  0  0
  5  6  1  0  0  0
  6  7  1  0  0  0
  7  8  1  0  0  0
  8  9  1  0  0  0
  9 10  2  0  0  0
 10 11  1  0  0  0
 11 12  1  0  0  0
 23 14  1  0  0  0
 12  3  1  0  0  0
 23 18  1  0  0  0
 11  7  2  0  0  0
M  END
> <minimizedAffinity>
-6.49549

> <CNNscore>
0.2824270725

> <CNNaffinity>
4.6593317986

> <CNN_VS>
1.3159214258

> <CNNaffinity_variance>
0.2011783123

$$$$



 23 26  0  0  0  0  0  0  0  0999 V2000
   -5.7705   -1.1082  -24.2856 O   0  0  0  0  0  0  0  0  0  0  0  0
   -7.1465   -1.1547  -23.6900 C   0  0  0  0  0  0  0  0  0  0  0  0
   -8.1450   -2.1580  -24.1865 N   0  0  0  0  0  0  0  0  0  0  0  0
   -9.4902   -2.1198  -23.5241 C   0  0  0  0  0  0  0  0  0  0  0  0
  -10.6890   -2.9809  -23.7913 C   0  0  0  0  0  0  0  0  0  0  0  0
  -10.8386   -4.0930  -24.7869 C   0  0  0  0  0  0  0  0  0  0  0  0
   -9.8263   -4.6184  -25.7611 C   0  0  0  0  0  0  0  0  0  0  0  0
  -10.1019   -5.7452  -26.7121 S   0  0  0  0  0  0  0  0  0  0  0  0
   -8.8605   -5.9849  -27.5191 C   0  0  0  0  0  0  0  0  0  0  0  0
   -7.8176   -5.0062  -27.0669 C   0  0  0  0  0  0  0  0  0  0  0  0
   -8.4145   -4.1617  -25.9803 C   0  0  0  0  0  0  0  0  0  0  0  0
   -7.6661   -3.0667  -25.2796 C   0  0  0  0  0  0  0  0  0  0  0  0
   -7.5238   -0.1980  -22.5981 C   0  0  0  0  0  0  0  0  0  0  0  0
   -6.8933   -0.3205  -21.2426 C   0  0  0  0  0  0  0  0  0  0  0  0
   -7.4895   -1.2400  -20.2184 C   0  0  0  0  0  0  0  0  0  0  0  0
   -6.8589   -1.3624  -18.8629 N   0  0  0  0  0  0  0  0  0  0  0  0
   -5.6322   -0.5653  -18.5316 C   0  0  0  0  0  0  0  0  0  0  0  0
   -5.0360    0.3543  -19.5558 C   0  0  0  0  0  0  0  0  0  0  0  0
   -3.8093    1.1513  -19.2245 C   0  0  0  0  0  0  0  0  0  0  0  0
   -3.2131    2.0708  -20.2487 C   0  0  0  0  0  0  0  0  0  0  0  0
   -3.8437    2.1933  -21.6042 C   0  0  0  0  0  0  0  0  0  0  0  0
   -5.0704    1.3962  -21.9355 C   0  0  0  0  0  0  0  0  0  0  0  0
   -5.6665    0.4767  -20.9113 C   0  0  0  0  0  0  0  0  0  0  0  0
  1  2  2  0  0  0
  2 13  1  0  0  0
 13 14  1  0  0  0
 14 15  2  0  0  0
 15 16  1  0  0  0
 16 17  2  0  0  0
 17 18  1  0  0  0
 18 19  2  0  0  0
 19 20  1  0  0  0
 20 21  2  0  0  0
 21 22  1  0  0  0
 22 23  2  0  0  0
  2  3  1  0  0  0
  3  4  1  0  0  0
  4  5  1  0  0  0
  5  6  1  0  0  0
  6  7  1  0  0  0
  7  8  1  0  0  0
  8  9  1  0  0  0
  9 10  2  0  0  0
 10 11  1  0  0  0
 11 12  1  0  0  0
 23 14  1  0  0  0
 12  3  1  0  0  0
 23 18  1  0  0  0
 11  7  2  0  0  0
M  END
> <minimizedAffinity>
-6.71113

> <CNNscore>
0.2819397748

> <CNNaffinity>
4.9028291702

> <CNN_VS>
1.3823025227

> <CNNaffinity_variance>
0.0840011984

$$$$



 23 26  0  0  0  0  0  0  0  0999 V2000
   -8.5498    0.6755  -21.3811 O   0  0  0  0  0  0  0  0  0  0  0  0
   -7.9588    1.2789  -22.6208 C   0  0  0  0  0  0  0  0  0  0  0  0
   -6.5141    1.6816  -22.6435 N   0  0  0  0  0  0  0  0  0  0  0  0
   -6.0239    2.2745  -23.9311 C   0  0  0  0  0  0  0  0  0  0  0  0
   -4.6491    2.7704  -24.2689 C   0  0  0  0  0  0  0  0  0  0  0  0
   -3.4249    2.7957  -23.4024 C   0  0  0  0  0  0  0  0  0  0  0  0
   -3.2732    2.3314  -21.9842 C   0  0  0  0  0  0  0  0  0  0  0  0
   -1.9839    2.4117  -21.2218 S   0  0  0  0  0  0  0  0  0  0  0  0
   -2.2220    1.8570  -19.8487 C   0  0  0  0  0  0  0  0  0  0  0  0
   -3.6585    1.4340  -19.7623 C   0  0  0  0  0  0  0  0  0  0  0  0
   -4.3082    1.7272  -21.0822 C   0  0  0  0  0  0  0  0  0  0  0  0
   -5.7505    1.4379  -21.3755 C   0  0  0  0  0  0  0  0  0  0  0  0
   -8.8126    1.4797  -23.8376 C   0  0  0  0  0  0  0  0  0  0  0  0
  -10.2980    1.2901  -23.7512 C   0  0  0  0  0  0  0  0  0  0  0  0
  -10.8709   -0.0884  -23.6044 C   0  0  0  0  0  0  0  0  0  0  0  0
  -12.3563   -0.2780  -23.5180 N   0  0  0  0  0  0  0  0  0  0  0  0
  -13.2690    0.9108  -23.5784 C   0  0  0  0  0  0  0  0  0  0  0  0
  -12.6961    2.2894  -23.7252 C   0  0  0  0  0  0  0  0  0  0  0  0
  -13.6088    3.4782  -23.7857 C   0  0  0  0  0  0  0  0  0  0  0  0
  -13.0359    4.8567  -23.9325 C   0  0  0  0  0  0  0  0  0  0  0  0
  -11.5505    5.0463  -24.0189 C   0  0  0  0  0  0  0  0  0  0  0  0
  -10.6378    3.8575  -23.9585 C   0  0  0  0  0  0  0  0  0  0  0  0
  -11.2107    2.4790  -23.8117 C   0  0  0  0  0  0  0  0  0  0  0  0
  1  2  2  0  0  0
  2 13  1  0  0  0
 13 14  1  0  0  0
 14 15  2  0  0  0
 15 16  1  0  0  0
 16 17  2  0  0  0
 17 18  1  0  0  0
 18 19  2  0  0  0
 19 20  1  0  0  0
 20 21  2  0  0  0
 21 22  1  0  0  0
 22 23  2  0  0  0
  2  3  1  0  0  0
  3  4  1  0  0  0
  4  5  1  0  0  0
  5  6  1  0  0  0
  6  7  1  0  0  0
  7  8  1  0  0  0
  8  9  1  0  0  0
  9 10  2  0  0  0
 10 11  1  0  0  0
 11 12  1  0  0  0
 23 14  1  0  0  0
 12  3  1  0  0  0
 23 18  1  0  0  0
 11  7  2  0  0  0
M  END
> <minimizedAffinity>
-6.36881

> <CNNscore>
0.2752633989

> <CNNaffinity>
4.6447186470

> <CNN_VS>
1.2785210609

> <CNNaffinity_variance>
0.2777766585

$$$$
