


 23 26  0  0  0  0  0  0  0  0999 V2000
    8.5254    1.0392   21.1994 O   0  0  0  0  0  0  0  0  0  0  0  0
    7.9253   -0.2210   21.7490 C   0  0  0  0  0  0  0  0  0  0  0  0
    8.7068   -1.0667   22.7102 N   0  0  0  0  0  0  0  0  0  0  0  0
    8.0151   -2.3047   23.1989 C   0  0  0  0  0  0  0  0  0  0  0  0
    8.5224   -3.3444   24.1537 C   0  0  0  0  0  0  0  0  0  0  0  0
    9.8467   -3.4029   24.8557 C   0  0  0  0  0  0  0  0  0  0  0  0
   10.9909   -2.4361   24.7761 C   0  0  0  0  0  0  0  0  0  0  0  0
   12.2734   -2.6093   25.5344 S   0  0  0  0  0  0  0  0  0  0  0  0
   13.1684   -1.4524   25.2021 C   0  0  0  0  0  0  0  0  0  0  0  0
   12.4390   -0.5641   24.2382 C   0  0  0  0  0  0  0  0  0  0  0  0
   11.0932   -1.1721   23.9750 C   0  0  0  0  0  0  0  0  0  0  0  0
   10.0767   -0.5626   23.0555 C   0  0  0  0  0  0  0  0  0  0  0  0
    6.5437   -0.6353   21.3373 C   0  0  0  0  0  0  0  0  0  0  0  0
    5.9038   -0.0169   20.1298 C   0  0  0  0  0  0  0  0  0  0  0  0
    6.5003   -0.2338   18.7708 C   0  0  0  0  0  0  0  0  0  0  0  0
    5.8603    0.3846   17.5633 N   0  0  0  0  0  0  0  0  0  0  0  0
    4.6238    1.2201   17.7149 C   0  0  0  0  0  0  0  0  0  0  0  0
    4.0272    1.4371   19.0740 C   0  0  0  0  0  0  0  0  0  0  0  0
    2.7907    2.2726   19.2256 C   0  0  0  0  0  0  0  0  0  0  0  0
    2.1942    2.4896   20.5846 C   0  0  0  0  0  0  0  0  0  0  0  0
    2.8341    1.8711   21.7920 C   0  0  0  0  0  0  0  0  0  0  0  0
    4.0706    1.0356   21.6405 C   0  0  0  0  0  0  0  0  0  0  0  0
    4.6672    0.8186   20.2814 C   0  0  0  0  0  0  0  0  0  0  0  0
  1  2  2  0  0  0
  2 13  1  0  0  0
 13 14  1  0  0  0
 14 15  2  0  0  0
 15 16  1  0  0  0
 16 17  2  0  0  0
 17 18  1  0  0  0
 18 19  2  0  0  0
 19 20  1  0  0  0
 20 21  2  0  0  0
 21 22  1  0  0  0
 22 23  2  0  0  0
  2  3  1  0  0  0
  3  4  1  0  0  0
  4  5  1  0  0  0
  5  6  1  0  0  0
  6  7  1  0  0  0
  7  8  1  0  0  0
  8  9  1  0  0  0
  9 10  2  0  0  0
 10 11  1  0  0  0
 11 12  1  0  0  0
 23 14  1  0  0  0
 12  3  1  0  0  0
 23 18  1  0  0  0
 11  7  2  0  0  0
M  END
> <minimizedAffinity>
-7.90005

> <CNNscore>
0.8104319572

> <CNNaffinity>
5.6694092751

> <CNN_VS>
4.5946702957

> <CNNaffinity_variance>
0.0454263613

$$$$



 23 26  0  0  0  0  0  0  0  0999 V2000
    7.0347   -1.8641   22.1730 O   0  0  0  0  0  0  0  0  0  0  0  0
    8.1621   -0.8746   22.1650 C   0  0  0  0  0  0  0  0  0  0  0  0
    9.3554   -1.0901   23.0479 N   0  0  0  0  0  0  0  0  0  0  0  0
   10.4252   -0.0422   22.9634 C   0  0  0  0  0  0  0  0  0  0  0  0
   11.7250    0.0296   23.7087 C   0  0  0  0  0  0  0  0  0  0  0  0
   12.2759   -0.9287   24.7227 C   0  0  0  0  0  0  0  0  0  0  0  0
   11.6630   -2.1956   25.2418 C   0  0  0  0  0  0  0  0  0  0  0  0
   12.3212   -3.0733   26.2647 S   0  0  0  0  0  0  0  0  0  0  0  0
   11.4130   -4.2372   26.5302 C   0  0  0  0  0  0  0  0  0  0  0  0
   10.1934   -4.0788   25.6714 C   0  0  0  0  0  0  0  0  0  0  0  0
   10.3479   -2.8169   24.8751 C   0  0  0  0  0  0  0  0  0  0  0  0
    9.3209   -2.3250   23.8987 C   0  0  0  0  0  0  0  0  0  0  0  0
    8.0962    0.3302   21.2739 C   0  0  0  0  0  0  0  0  0  0  0  0
    6.9941    0.4570   20.2643 C   0  0  0  0  0  0  0  0  0  0  0  0
    6.9942   -0.4110   19.0410 C   0  0  0  0  0  0  0  0  0  0  0  0
    5.8921   -0.2842   18.0313 N   0  0  0  0  0  0  0  0  0  0  0  0
    4.7900    0.7106   18.2450 C   0  0  0  0  0  0  0  0  0  0  0  0
    4.7899    1.5786   19.4684 C   0  0  0  0  0  0  0  0  0  0  0  0
    3.6878    2.5734   19.6820 C   0  0  0  0  0  0  0  0  0  0  0  0
    3.6877    3.4414   20.9054 C   0  0  0  0  0  0  0  0  0  0  0  0
    4.7898    3.3146   21.9150 C   0  0  0  0  0  0  0  0  0  0  0  0
    5.8919    2.3198   21.7013 C   0  0  0  0  0  0  0  0  0  0  0  0
    5.8919    1.4518   20.4780 C   0  0  0  0  0  0  0  0  0  0  0  0
  1  2  2  0  0  0
  2 13  1  0  0  0
 13 14  1  0  0  0
 14 15  2  0  0  0
 15 16  1  0  0  0
 16 17  2  0  0  0
 17 18  1  0  0  0
 18 19  2  0  0  0
 19 20  1  0  0  0
 20 21  2  0  0  0
 21 22  1  0  0  0
 22 23  2  0  0  0
  2  3  1  0  0  0
  3  4  1  0  0  0
  4  5  1  0  0  0
  5  6  1  0  0  0
  6  7  1  0  0  0
  7  8  1  0  0  0
  8  9  1  0  0  0
  9 10  2  0  0  0
 10 11  1  0  0  0
 11 12  1  0  0  0
 23 14  1  0  0  0
 12  3  1  0  0  0
 23 18  1  0  0  0
 11  7  2  0  0  0
M  END
> <minimizedAffinity>
-8.04262

> <CNNscore>
0.5885260105

> <CNNaffinity>
5.5549197197

> <CNN_VS>
3.2692146301

> <CNNaffinity_variance>
0.1273486316

$$$$



 23 26  0  0  0  0  0  0  0  0999 V2000
    8.4849   -4.8568   24.6624 O   0  0  0  0  0  0  0  0  0  0  0  0
    8.3670   -3.3831   24.4086 C   0  0  0  0  0  0  0  0  0  0  0  0
    7.6121   -2.5144   25.3706 N   0  0  0  0  0  0  0  0  0  0  0  0
    7.5546   -1.0563   25.0236 C   0  0  0  0  0  0  0  0  0  0  0  0
    6.8853    0.0576   25.7727 C   0  0  0  0  0  0  0  0  0  0  0  0
    6.1083   -0.0114   27.0540 C   0  0  0  0  0  0  0  0  0  0  0  0
    5.8087   -1.2115   27.9025 C   0  0  0  0  0  0  0  0  0  0  0  0
    5.0137   -1.1477   29.1728 S   0  0  0  0  0  0  0  0  0  0  0  0
    4.9257   -2.5356   29.7349 C   0  0  0  0  0  0  0  0  0  0  0  0
    5.6663   -3.4572   28.8118 C   0  0  0  0  0  0  0  0  0  0  0  0
    6.2121   -2.6389   27.6793 C   0  0  0  0  0  0  0  0  0  0  0  0
    7.0147   -3.2188   26.5526 C   0  0  0  0  0  0  0  0  0  0  0  0
    9.0039   -2.7782   23.1927 C   0  0  0  0  0  0  0  0  0  0  0  0
   10.2464   -1.9493   23.3307 C   0  0  0  0  0  0  0  0  0  0  0  0
   10.4983   -0.8124   22.3852 C   0  0  0  0  0  0  0  0  0  0  0  0
   11.7408    0.0166   22.5232 N   0  0  0  0  0  0  0  0  0  0  0  0
   12.7314   -0.2914   23.6067 C   0  0  0  0  0  0  0  0  0  0  0  0
   12.4794   -1.4283   24.5523 C   0  0  0  0  0  0  0  0  0  0  0  0
   13.4700   -1.7363   25.6357 C   0  0  0  0  0  0  0  0  0  0  0  0
   13.2180   -2.8731   26.5812 C   0  0  0  0  0  0  0  0  0  0  0  0
   11.9755   -3.7021   26.4432 C   0  0  0  0  0  0  0  0  0  0  0  0
   10.9849   -3.3941   25.3597 C   0  0  0  0  0  0  0  0  0  0  0  0
   11.2369   -2.2573   24.4143 C   0  0  0  0  0  0  0  0  0  0  0  0
  1  2  2  0  0  0
  2 13  1  0  0  0
 13 14  1  0  0  0
 14 15  2  0  0  0
 15 16  1  0  0  0
 16 17  2  0  0  0
 17 18  1  0  0  0
 18 19  2  0  0  0
 19 20  1  0  0  0
 20 21  2  0  0  0
 21 22  1  0  0  0
 22 23  2  0  0  0
  2  3  1  0  0  0
  3  4  1  0  0  0
  4  5  1  0  0  0
  5  6  1  0  0  0
  6  7  1  0  0  0
  7  8  1  0  0  0
  8  9  1  0  0  0
  9 10  2  0  0  0
 10 11  1  0  0  0
 11 12  1  0  0  0
 23 14  1  0  0  0
 12  3  1  0  0  0
 23 18  1  0  0  0
 11  7  2  0  0  0
M  END
> <minimizedAffinity>
-7.05148

> <CNNscore>
0.5379722714

> <CNNaffinity>
5.5460596085

> <CNN_VS>
2.9836263657

> <CNNaffinity_variance>
0.0970363691

$$$$



 23 26  0  0  0  0  0  0  0  0999 V2000
    6.6731   -3.0310   22.4396 O   0  0  0  0  0  0  0  0  0  0  0  0
    6.6299   -1.5409   22.2727 C   0  0  0  0  0  0  0  0  0  0  0  0
    7.8775   -0.7290   22.4578 N   0  0  0  0  0  0  0  0  0  0  0  0
    7.7249    0.7511   22.2682 C   0  0  0  0  0  0  0  0  0  0  0  0
    8.7698    1.8212   22.3819 C   0  0  0  0  0  0  0  0  0  0  0  0
   10.2255    1.6756   22.7134 C   0  0  0  0  0  0  0  0  0  0  0  0
   10.9957    0.4238   23.0129 C   0  0  0  0  0  0  0  0  0  0  0  0
   12.4612    0.4117   23.3324 S   0  0  0  0  0  0  0  0  0  0  0  0
   12.8718   -1.0110   23.5719 C   0  0  0  0  0  0  0  0  0  0  0  0
   11.6600   -1.8782   23.4005 C   0  0  0  0  0  0  0  0  0  0  0  0
   10.5004   -0.9915   23.0550 C   0  0  0  0  0  0  0  0  0  0  0  0
    9.1127   -1.5046   22.8079 C   0  0  0  0  0  0  0  0  0  0  0  0
    5.3390   -0.8627   21.9208 C   0  0  0  0  0  0  0  0  0  0  0  0
    5.1386   -0.2991   20.5452 C   0  0  0  0  0  0  0  0  0  0  0  0
    5.8823   -0.8819   19.3802 C   0  0  0  0  0  0  0  0  0  0  0  0
    5.6819   -0.3183   18.0046 N   0  0  0  0  0  0  0  0  0  0  0  0
    4.7378    0.8281   17.7941 C   0  0  0  0  0  0  0  0  0  0  0  0
    3.9941    1.4110   18.9591 C   0  0  0  0  0  0  0  0  0  0  0  0
    3.0500    2.5574   18.7485 C   0  0  0  0  0  0  0  0  0  0  0  0
    2.3064    3.1402   19.9135 C   0  0  0  0  0  0  0  0  0  0  0  0
    2.5068    2.5766   21.2891 C   0  0  0  0  0  0  0  0  0  0  0  0
    3.4508    1.4302   21.4996 C   0  0  0  0  0  0  0  0  0  0  0  0
    4.1945    0.8474   20.3347 C   0  0  0  0  0  0  0  0  0  0  0  0
  1  2  2  0  0  0
  2 13  1  0  0  0
 13 14  1  0  0  0
 14 15  2  0  0  0
 15 16  1  0  0  0
 16 17  2  0  0  0
 17 18  1  0  0  0
 18 19  2  0  0  0
 19 20  1  0  0  0
 20 21  2  0  0  0
 21 22  1  0  0  0
 22 23  2  0  0  0
  2  3  1  0  0  0
  3  4  1  0  0  0
  4  5  1  0  0  0
  5  6  1  0  0  0
  6  7  1  0  0  0
  7  8  1  0  0  0
  8  9  1  0  0  0
  9 10  2  0  0  0
 10 11  1  0  0  0
 11 12  1  0  0  0
 23 14  1  0  0  0
 12  3  1  0  0  0
 23 18  1  0  0  0
 11  7  2  0  0  0
M  END
> <minimizedAffinity>
-7.20983

> <CNNscore>
0.5337938666

> <CNNaffinity>
5.4702663422

> <CNN_VS>
2.9199945927

> <CNNaffinity_variance>
0.2983987927

$$$$



 23 26  0  0  0  0  0  0  0  0999 V2000
    8.9281   -0.0379   21.5231 O   0  0  0  0  0  0  0  0  0  0  0  0
    8.3208   -1.1877   22.2711 C   0  0  0  0  0  0  0  0  0  0  0  0
    9.1122   -1.8944   23.3313 N   0  0  0  0  0  0  0  0  0  0  0  0
    8.4123   -3.0295   24.0179 C   0  0  0  0  0  0  0  0  0  0  0  0
    8.9262   -3.9232   25.1075 C   0  0  0  0  0  0  0  0  0  0  0  0
   10.2670   -3.9025   25.7797 C   0  0  0  0  0  0  0  0  0  0  0  0
   11.4250   -2.9829   25.5282 C   0  0  0  0  0  0  0  0  0  0  0  0
   12.7235   -3.0661   26.2745 S   0  0  0  0  0  0  0  0  0  0  0  0
   13.6293   -1.9916   25.7501 C   0  0  0  0  0  0  0  0  0  0  0  0
   12.8906   -1.2443   24.6796 C   0  0  0  0  0  0  0  0  0  0  0  0
   11.5283   -1.8570   24.5425 C   0  0  0  0  0  0  0  0  0  0  0  0
   10.4990   -1.3725   23.5648 C   0  0  0  0  0  0  0  0  0  0  0  0
    6.9222   -1.6307   21.9587 C   0  0  0  0  0  0  0  0  0  0  0  0
    5.7947   -0.6424   22.0041 C   0  0  0  0  0  0  0  0  0  0  0  0
    5.1443   -0.3063   23.3133 C   0  0  0  0  0  0  0  0  0  0  0  0
    4.0167    0.6820   23.3587 N   0  0  0  0  0  0  0  0  0  0  0  0
    3.5396    1.3341   22.0950 C   0  0  0  0  0  0  0  0  0  0  0  0
    4.1901    0.9980   20.7857 C   0  0  0  0  0  0  0  0  0  0  0  0
    3.7130    1.6501   19.5220 C   0  0  0  0  0  0  0  0  0  0  0  0
    4.3634    1.3140   18.2129 C   0  0  0  0  0  0  0  0  0  0  0  0
    5.4909    0.3257   18.1674 C   0  0  0  0  0  0  0  0  0  0  0  0
    5.9680   -0.3264   19.4312 C   0  0  0  0  0  0  0  0  0  0  0  0
    5.3176    0.0097   20.7403 C   0  0  0  0  0  0  0  0  0  0  0  0
  1  2  2  0  0  0
  2 13  1  0  0  0
 13 14  1  0  0  0
 14 15  2  0  0  0
 15 16  1  0  0  0
 16 17  2  0  0  0
 17 18  1  0  0  0
 18 19  2  0  0  0
 19 20  1  0  0  0
 20 21  2  0  0  0
 21 22  1  0  0  0
 22 23  2  0  0  0
  2  3  1  0  0  0
  3  4  1  0  0  0
  4  5  1  0  0  0
  5  6  1  0  0  0
  6  7  1  0  0  0
  7  8  1  0  0  0
  8  9  1  0  0  0
  9 10  2  0  0  0
 10 11  1  0  0  0
 11 12  1  0  0  0
 23 14  1  0  0  0
 12  3  1  0  0  0
 23 18  1  0  0  0
 11  7  2  0  0  0
M  END
> <minimizedAffinity>
-7.70042

> <CNNscore>
0.5101541281

> <CNNaffinity>
5.3619670868

> <CNN_VS>
2.7354295254

> <CNNaffinity_variance>
0.1472490728

$$$$



 23 26  0  0  0  0  0  0  0  0999 V2000
    8.1866    1.0264   20.8039 O   0  0  0  0  0  0  0  0  0  0  0  0
    7.6544   -0.2809   21.3118 C   0  0  0  0  0  0  0  0  0  0  0  0
    8.4357   -1.0669   22.3226 N   0  0  0  0  0  0  0  0  0  0  0  0
    7.8147   -2.3590   22.7637 C   0  0  0  0  0  0  0  0  0  0  0  0
    8.3393   -3.3602   23.7498 C   0  0  0  0  0  0  0  0  0  0  0  0
    9.6145   -3.3165   24.5384 C   0  0  0  0  0  0  0  0  0  0  0  0
   10.6801   -2.2608   24.5356 C   0  0  0  0  0  0  0  0  0  0  0  0
   11.9192   -2.3351   25.3777 S   0  0  0  0  0  0  0  0  0  0  0  0
   12.7385   -1.1084   25.1061 C   0  0  0  0  0  0  0  0  0  0  0  0
   12.0058   -0.2759   24.0962 C   0  0  0  0  0  0  0  0  0  0  0  0
   10.7336   -0.9881   23.7436 C   0  0  0  0  0  0  0  0  0  0  0  0
    9.7348   -0.4567   22.7587 C   0  0  0  0  0  0  0  0  0  0  0  0
    6.3410   -0.8021   20.8087 C   0  0  0  0  0  0  0  0  0  0  0  0
    5.3445    0.1388   20.1991 C   0  0  0  0  0  0  0  0  0  0  0  0
    5.3691    0.4041   18.7230 C   0  0  0  0  0  0  0  0  0  0  0  0
    4.3726    1.3451   18.1134 N   0  0  0  0  0  0  0  0  0  0  0  0
    3.3515    2.0207   18.9799 C   0  0  0  0  0  0  0  0  0  0  0  0
    3.3269    1.7555   20.4561 C   0  0  0  0  0  0  0  0  0  0  0  0
    2.3059    2.4312   21.3226 C   0  0  0  0  0  0  0  0  0  0  0  0
    2.2813    2.1659   22.7987 C   0  0  0  0  0  0  0  0  0  0  0  0
    3.2778    1.2249   23.4083 C   0  0  0  0  0  0  0  0  0  0  0  0
    4.2988    0.5492   22.5418 C   0  0  0  0  0  0  0  0  0  0  0  0
    4.3234    0.8145   21.0657 C   0  0  0  0  0  0  0  0  0  0  0  0
  1  2  2  0  0  0
  2 13  1  0  0  0
 13 14  1  0  0  0
 14 15  2  0  0  0
 15 16  1  0  0  0
 16 17  2  0  0  0
 17 18  1  0  0  0
 18 19  2  0  0  0
 19 20  1  0  0  0
 20 21  2  0  0  0
 21 22  1  0  0  0
 22 23  2  0  0  0
  2  3  1  0  0  0
  3  4  1  0  0  0
  4  5  1  0  0  0
  5  6  1  0  0  0
  6  7  1  0  0  0
  7  8  1  0  0  0
  8  9  1  0  0  0
  9 10  2  0  0  0
 10 11  1  0  0  0
 11 12  1  0  0  0
 23 14  1  0  0  0
 12  3  1  0  0  0
 23 18  1  0  0  0
 11  7  2  0  0  0
M  END
> <minimizedAffinity>
-6.98976

> <CNNscore>
0.4987161458

> <CNNaffinity>
5.2594451904

> <CNN_VS>
2.6229703426

> <CNNaffinity_variance>
0.1424725354

$$$$



 23 26  0  0  0  0  0  0  0  0999 V2000
    9.3606    1.8267   21.5641 O   0  0  0  0  0  0  0  0  0  0  0  0
    8.4458    0.9359   22.3514 C   0  0  0  0  0  0  0  0  0  0  0  0
    9.0161   -0.0490   23.3285 N   0  0  0  0  0  0  0  0  0  0  0  0
    8.0153   -0.8907   24.0632 C   0  0  0  0  0  0  0  0  0  0  0  0
    8.2629   -1.9533   25.0926 C   0  0  0  0  0  0  0  0  0  0  0  0
    9.5725   -2.4366   25.6416 C   0  0  0  0  0  0  0  0  0  0  0  0
   10.9579   -1.9766   25.2967 C   0  0  0  0  0  0  0  0  0  0  0  0
   12.1971   -2.5451   25.9222 S   0  0  0  0  0  0  0  0  0  0  0  0
   13.3809   -1.8398   25.3298 C   0  0  0  0  0  0  0  0  0  0  0  0
   12.8734   -0.8352   24.3382 C   0  0  0  0  0  0  0  0  0  0  0  0
   11.3759   -0.9198   24.3177 C   0  0  0  0  0  0  0  0  0  0  0  0
   10.5118   -0.0619   23.4418 C   0  0  0  0  0  0  0  0  0  0  0  0
    6.9609    1.0300   22.1615 C   0  0  0  0  0  0  0  0  0  0  0  0
    6.3660    0.8444   20.7970 C   0  0  0  0  0  0  0  0  0  0  0  0
    7.0179   -0.0827   19.8144 C   0  0  0  0  0  0  0  0  0  0  0  0
    6.4230   -0.2683   18.4500 N   0  0  0  0  0  0  0  0  0  0  0  0
    5.1763    0.4731   18.0682 C   0  0  0  0  0  0  0  0  0  0  0  0
    4.5243    1.4002   19.0508 C   0  0  0  0  0  0  0  0  0  0  0  0
    3.2776    2.1417   18.6690 C   0  0  0  0  0  0  0  0  0  0  0  0
    2.6257    3.0687   19.6516 C   0  0  0  0  0  0  0  0  0  0  0  0
    3.2206    3.2544   21.0160 C   0  0  0  0  0  0  0  0  0  0  0  0
    4.4674    2.5129   21.3979 C   0  0  0  0  0  0  0  0  0  0  0  0
    5.1192    1.5859   20.4153 C   0  0  0  0  0  0  0  0  0  0  0  0
  1  2  2  0  0  0
  2 13  1  0  0  0
 13 14  1  0  0  0
 14 15  2  0  0  0
 15 16  1  0  0  0
 16 17  2  0  0  0
 17 18  1  0  0  0
 18 19  2  0  0  0
 19 20  1  0  0  0
 20 21  2  0  0  0
 21 22  1  0  0  0
 22 23  2  0  0  0
  2  3  1  0  0  0
  3  4  1  0  0  0
  4  5  1  0  0  0
  5  6  1  0  0  0
  6  7  1  0  0  0
  7  8  1  0  0  0
  8  9  1  0  0  0
  9 10  2  0  0  0
 10 11  1  0  0  0
 11 12  1  0  0  0
 23 14  1  0  0  0
 12  3  1  0  0  0
 23 18  1  0  0  0
 11  7  2  0  0  0
M  END
> <minimizedAffinity>
-7.55861

> <CNNscore>
0.4675692022

> <CNNaffinity>
5.4070806503

> <CNN_VS>
2.5281844139

> <CNNaffinity_variance>
0.1310486645

$$$$



 23 26  0  0  0  0  0  0  0  0999 V2000
    6.8122   -3.5096   24.4480 O   0  0  0  0  0  0  0  0  0  0  0  0
    7.4898   -2.7099   23.3749 C   0  0  0  0  0  0  0  0  0  0  0  0
    8.9495   -2.3847   23.4906 N   0  0  0  0  0  0  0  0  0  0  0  0
    9.5285   -1.5809   22.3643 C   0  0  0  0  0  0  0  0  0  0  0  0
   10.9382   -1.1002   22.1865 C   0  0  0  0  0  0  0  0  0  0  0  0
   12.1172   -1.3045   23.0911 C   0  0  0  0  0  0  0  0  0  0  0  0
   12.1775   -2.0400   24.3970 C   0  0  0  0  0  0  0  0  0  0  0  0
   13.4290   -2.1739   25.2130 S   0  0  0  0  0  0  0  0  0  0  0  0
   13.0989   -2.9694   26.4410 C   0  0  0  0  0  0  0  0  0  0  0  0
   11.6433   -3.3273   26.3840 C   0  0  0  0  0  0  0  0  0  0  0  0
   11.0738   -2.7529   25.1207 C   0  0  0  0  0  0  0  0  0  0  0  0
    9.6373   -2.9063   24.7174 C   0  0  0  0  0  0  0  0  0  0  0  0
    6.7077   -2.2355   22.1861 C   0  0  0  0  0  0  0  0  0  0  0  0
    5.7438   -1.0951   22.3291 C   0  0  0  0  0  0  0  0  0  0  0  0
    5.2269   -0.7154   23.6850 C   0  0  0  0  0  0  0  0  0  0  0  0
    4.2630    0.4250   23.8279 N   0  0  0  0  0  0  0  0  0  0  0  0
    3.8160    1.1856   22.6149 C   0  0  0  0  0  0  0  0  0  0  0  0
    4.3329    0.8060   21.2589 C   0  0  0  0  0  0  0  0  0  0  0  0
    3.8859    1.5667   20.0458 C   0  0  0  0  0  0  0  0  0  0  0  0
    4.4027    1.1869   18.6899 C   0  0  0  0  0  0  0  0  0  0  0  0
    5.3666    0.0466   18.5470 C   0  0  0  0  0  0  0  0  0  0  0  0
    5.8136   -0.7141   19.7600 C   0  0  0  0  0  0  0  0  0  0  0  0
    5.2968   -0.3344   21.1159 C   0  0  0  0  0  0  0  0  0  0  0  0
  1  2  2  0  0  0
  2 13  1  0  0  0
 13 14  1  0  0  0
 14 15  2  0  0  0
 15 16  1  0  0  0
 16 17  2  0  0  0
 17 18  1  0  0  0
 18 19  2  0  0  0
 19 20  1  0  0  0
 20 21  2  0  0  0
 21 22  1  0  0  0
 22 23  2  0  0  0
  2  3  1  0  0  0
  3  4  1  0  0  0
  4  5  1  0  0  0
  5  6  1  0  0  0
  6  7  1  0  0  0
  7  8  1  0  0  0
  8  9  1  0  0  0
  9 10  2  0  0  0
 10 11  1  0  0  0
 11 12  1  0  0  0
 23 14  1  0  0  0
 12  3  1  0  0  0
 23 18  1  0  0  0
 11  7  2  0  0  0
M  END
> <minimizedAffinity>
-7.30470

> <CNNscore>
0.4674248695

> <CNNaffinity>
5.5084733963

> <CNN_VS>
2.5747973919

> <CNNaffinity_variance>
0.2143788636

$$$$



 23 26  0  0  0  0  0  0  0  0999 V2000
    9.3697   -2.1863   21.6565 O   0  0  0  0  0  0  0  0  0  0  0  0
   10.1635   -1.0341   22.1974 C   0  0  0  0  0  0  0  0  0  0  0  0
    9.5205    0.3120   22.3536 N   0  0  0  0  0  0  0  0  0  0  0  0
   10.4018    1.3944   22.9029 C   0  0  0  0  0  0  0  0  0  0  0  0
   10.0615    2.8299   23.1740 C   0  0  0  0  0  0  0  0  0  0  0  0
    8.7558    3.5376   22.9629 C   0  0  0  0  0  0  0  0  0  0  0  0
    7.4680    2.9845   22.4285 C   0  0  0  0  0  0  0  0  0  0  0  0
    6.2219    3.8032   22.2644 S   0  0  0  0  0  0  0  0  0  0  0  0
    5.1516    2.9119   21.7076 C   0  0  0  0  0  0  0  0  0  0  0  0
    5.7362    1.5423   21.5276 C   0  0  0  0  0  0  0  0  0  0  0  0
    7.1679    1.5871   21.9732 C   0  0  0  0  0  0  0  0  0  0  0  0
    8.0813    0.3977   21.9398 C   0  0  0  0  0  0  0  0  0  0  0  0
   11.6003   -1.2282   22.5822 C   0  0  0  0  0  0  0  0  0  0  0  0
   11.9455   -1.8827   23.8870 C   0  0  0  0  0  0  0  0  0  0  0  0
   13.3816   -2.0406   24.2900 C   0  0  0  0  0  0  0  0  0  0  0  0
   13.7268   -2.6951   25.5948 N   0  0  0  0  0  0  0  0  0  0  0  0
   12.6358   -3.1915   26.4966 C   0  0  0  0  0  0  0  0  0  0  0  0
   11.1996   -3.0336   26.0936 C   0  0  0  0  0  0  0  0  0  0  0  0
   10.1087   -3.5300   26.9954 C   0  0  0  0  0  0  0  0  0  0  0  0
    8.6725   -3.3720   26.5924 C   0  0  0  0  0  0  0  0  0  0  0  0
    8.3273   -2.7176   25.2876 C   0  0  0  0  0  0  0  0  0  0  0  0
    9.4183   -2.2211   24.3858 C   0  0  0  0  0  0  0  0  0  0  0  0
   10.8544   -2.3791   24.7888 C   0  0  0  0  0  0  0  0  0  0  0  0
  1  2  2  0  0  0
  2 13  1  0  0  0
 13 14  1  0  0  0
 14 15  2  0  0  0
 15 16  1  0  0  0
 16 17  2  0  0  0
 17 18  1  0  0  0
 18 19  2  0  0  0
 19 20  1  0  0  0
 20 21  2  0  0  0
 21 22  1  0  0  0
 22 23  2  0  0  0
  2  3  1  0  0  0
  3  4  1  0  0  0
  4  5  1  0  0  0
  5  6  1  0  0  0
  6  7  1  0  0  0
  7  8  1  0  0  0
  8  9  1  0  0  0
  9 10  2  0  0  0
 10 11  1  0  0  0
 11 12  1  0  0  0
 23 14  1  0  0  0
 12  3  1  0  0  0
 23 18  1  0  0  0
 11  7  2  0  0  0
M  END
> <minimizedAffinity>
-7.07138

> <CNNscore>
0.4608286619

> <CNNaffinity>
5.5696611404

> <CNN_VS>
2.5666594505

> <CNNaffinity_variance>
0.1155009717

$$$$
