


 35 39  0  0  0  0  0  0  0  0999 V2000
   -7.0077   -1.2070  -22.4218 N   0  0  0  0  0  0  0  0  0  0  0  0
   -7.1028    0.1133  -23.1273 C   0  0  0  0  0  0  0  0  0  0  0  0
   -8.4309    0.6063  -23.6204 C   0  0  0  0  0  0  0  0  0  0  0  0
   -9.6831    1.2262  -24.1661 C   0  0  0  0  0  0  0  0  0  0  0  0
  -10.8726    0.9956  -24.2572 O   0  0  0  0  0  0  0  0  0  0  0  0
   -9.3166    2.5415  -24.7871 N   0  0  0  0  0  0  0  0  0  0  0  0
   -7.8379    2.7346  -24.6251 C   0  0  0  0  0  0  0  0  0  0  0  0
   -7.2906    1.5386  -23.9040 C   0  0  0  0  0  0  0  0  0  0  0  0
   -9.6640   -0.2211  -23.4079 C   0  0  0  0  0  0  0  0  0  0  0  0
  -10.9921    0.2719  -23.9009 C   0  0  0  0  0  0  0  0  0  0  0  0
  -12.2250   -0.5555  -23.6884 C   0  0  0  0  0  0  0  0  0  0  0  0
  -13.5532   -0.0626  -24.1815 Cl  0  0  0  0  0  0  0  0  0  0  0  0
  -12.1299   -1.8758  -22.9829 C   0  0  0  0  0  0  0  0  0  0  0  0
  -10.8018   -2.3688  -22.4899 C   0  0  0  0  0  0  0  0  0  0  0  0
   -9.5689   -1.5414  -22.7024 C   0  0  0  0  0  0  0  0  0  0  0  0
   -8.2407   -2.0343  -22.2093 C   0  0  0  0  0  0  0  0  0  0  0  0
   -8.1455   -3.3546  -21.5038 O   0  0  0  0  0  0  0  0  0  0  0  0
  -10.2627    3.4961  -25.4530 C   0  0  0  0  0  0  0  0  0  0  0  0
  -10.1258    3.7884  -26.9179 C   0  0  0  0  0  0  0  0  0  0  0  0
  -11.0719    4.7430  -27.5839 N   0  0  0  0  0  0  0  0  0  0  0  0
  -12.1550    5.4054  -26.7850 C   0  0  0  0  0  0  0  0  0  0  0  0
  -12.2919    5.1131  -25.3201 C   0  0  0  0  0  0  0  0  0  0  0  0
  -13.3750    5.7756  -24.5212 C   0  0  0  0  0  0  0  0  0  0  0  0
  -13.5118    5.4833  -23.0563 C   0  0  0  0  0  0  0  0  0  0  0  0
  -12.5657    4.5286  -22.3903 C   0  0  0  0  0  0  0  0  0  0  0  0
  -11.4827    3.8663  -23.1892 C   0  0  0  0  0  0  0  0  0  0  0  0
  -11.3457    4.1585  -24.6541 C   0  0  0  0  0  0  0  0  0  0  0  0
   -5.8548    1.3142  -23.5320 C   0  0  0  0  0  0  0  0  0  0  0  0
   -4.9433    2.4862  -23.3190 Cl  0  0  0  0  0  0  0  0  0  0  0  0
   -5.6795   -1.6999  -21.9288 C   0  0  0  0  0  0  0  0  0  0  0  0
   -5.5188   -5.6653  -21.9227 C   0  0  0  0  0  0  0  0  0  0  0  0
   -5.6615   -4.2533  -22.4083 N   0  0  0  0  0  0  0  0  0  0  0  0
   -5.5368   -3.1119  -21.4431 C   0  0  0  0  0  0  0  0  0  0  0  0
   -5.2694   -3.3825  -19.9921 O   0  0  0  0  0  0  0  0  0  0  0  0
   -5.8369   -4.0756  -23.3607 H   0  0  0  0  0  0  0  0  0  0  0  0
 31 32  1  0  0  0
 32 33  1  0  0  0
 33 34  2  0  0  0
 33 30  1  0  0  0
 30  1  1  0  0  0
  1  2  1  0  0  0
  3  2  1  0  0  0
  3  4  1  0  0  0
  4  5  2  0  0  0
  4  6  1  0  0  0
  6 18  1  0  0  0
 18 19  2  0  0  0
 19 20  1  0  0  0
 20 21  2  0  0  0
 21 22  1  0  0  0
 22 23  2  0  0  0
 23 24  1  0  0  0
 24 25  2  0  0  0
 25 26  1  0  0  0
 26 27  2  0  0  0
  6  7  1  0  0  0
  7  8  1  0  0  0
  8 28  1  0  0  0
 28 29  1  0  0  0
  3  9  1  0  0  0
  9 10  2  0  0  0
 10 11  1  0  0  0
 11 12  1  0  0  0
 11 13  2  0  0  0
 13 14  1  0  0  0
 14 15  2  0  0  0
 15 16  1  0  0  0
 16 17  2  0  0  0
 16  1  1  0  0  0
  8  3  1  0  0  0
 15  9  1  0  0  0
 27 18  1  0  0  0
 27 22  1  0  0  0
 32 35  1  0  0  0
M  END
> <minimizedAffinity>
-6.89035

> <CNNscore>
0.4316439927

> <CNNaffinity>
6.3229308128

> <CNN_VS>
2.7292551994

> <CNNaffinity_variance>
0.1478919685

$$$$



 35 39  0  0  0  0  0  0  0  0999 V2000
   -9.0792    2.6672  -24.7535 N   0  0  0  0  0  0  0  0  0  0  0  0
   -8.1838    1.4672  -24.8447 C   0  0  0  0  0  0  0  0  0  0  0  0
   -8.7053    0.1120  -24.4687 C   0  0  0  0  0  0  0  0  0  0  0  0
   -9.0843   -1.2988  -24.1285 C   0  0  0  0  0  0  0  0  0  0  0  0
  -10.0392   -1.9358  -23.7299 O   0  0  0  0  0  0  0  0  0  0  0  0
   -7.8869   -2.1706  -24.3657 N   0  0  0  0  0  0  0  0  0  0  0  0
   -6.7678   -1.2985  -24.8525 C   0  0  0  0  0  0  0  0  0  0  0  0
   -7.2736    0.1122  -24.9162 C   0  0  0  0  0  0  0  0  0  0  0  0
  -10.1222   -0.0433  -24.0014 C   0  0  0  0  0  0  0  0  0  0  0  0
  -10.6437   -1.3985  -23.6254 C   0  0  0  0  0  0  0  0  0  0  0  0
  -12.0605   -1.5537  -23.1582 C   0  0  0  0  0  0  0  0  0  0  0  0
  -12.5821   -2.9090  -22.7821 Cl  0  0  0  0  0  0  0  0  0  0  0  0
  -12.9559   -0.3538  -23.0670 C   0  0  0  0  0  0  0  0  0  0  0  0
  -12.4345    1.0014  -23.4430 C   0  0  0  0  0  0  0  0  0  0  0  0
  -11.0176    1.1567  -23.9102 C   0  0  0  0  0  0  0  0  0  0  0  0
  -10.4961    2.5120  -24.2863 C   0  0  0  0  0  0  0  0  0  0  0  0
  -11.3915    3.7119  -24.1950 O   0  0  0  0  0  0  0  0  0  0  0  0
   -7.8204   -3.6540  -24.1533 C   0  0  0  0  0  0  0  0  0  0  0  0
   -7.2323   -4.2049  -22.8881 C   0  0  0  0  0  0  0  0  0  0  0  0
   -7.1657   -5.6883  -22.6757 N   0  0  0  0  0  0  0  0  0  0  0  0
   -7.6872   -6.6208  -23.7285 C   0  0  0  0  0  0  0  0  0  0  0  0
   -8.2753   -6.0699  -24.9937 C   0  0  0  0  0  0  0  0  0  0  0  0
   -8.7969   -7.0025  -26.0466 C   0  0  0  0  0  0  0  0  0  0  0  0
   -9.3850   -6.4515  -27.3117 C   0  0  0  0  0  0  0  0  0  0  0  0
   -9.4515   -4.9681  -27.5241 C   0  0  0  0  0  0  0  0  0  0  0  0
   -8.9300   -4.0356  -26.4713 C   0  0  0  0  0  0  0  0  0  0  0  0
   -8.3419   -4.5865  -25.2061 C   0  0  0  0  0  0  0  0  0  0  0  0
   -6.4859    1.3124  -25.3510 C   0  0  0  0  0  0  0  0  0  0  0  0
   -5.1290    1.5710  -24.7666 Cl  0  0  0  0  0  0  0  0  0  0  0  0
   -8.5577    4.0225  -25.1295 C   0  0  0  0  0  0  0  0  0  0  0  0
   -7.0630    5.7387  -21.8783 C   0  0  0  0  0  0  0  0  0  0  0  0
   -8.0081    5.0182  -22.7937 N   0  0  0  0  0  0  0  0  0  0  0  0
   -7.6127    4.7429  -24.2142 C   0  0  0  0  0  0  0  0  0  0  0  0
   -6.2722    5.1879  -24.7193 O   0  0  0  0  0  0  0  0  0  0  0  0
   -8.8878    4.7261  -22.4621 H   0  0  0  0  0  0  0  0  0  0  0  0
 31 32  1  0  0  0
 32 33  1  0  0  0
 33 34  2  0  0  0
 33 30  1  0  0  0
 30  1  1  0  0  0
  1  2  1  0  0  0
  3  2  1  0  0  0
  3  4  1  0  0  0
  4  5  2  0  0  0
  4  6  1  0  0  0
  6 18  1  0  0  0
 18 19  2  0  0  0
 19 20  1  0  0  0
 20 21  2  0  0  0
 21 22  1  0  0  0
 22 23  2  0  0  0
 23 24  1  0  0  0
 24 25  2  0  0  0
 25 26  1  0  0  0
 26 27  2  0  0  0
  6  7  1  0  0  0
  7  8  1  0  0  0
  8 28  1  0  0  0
 28 29  1  0  0  0
  3  9  1  0  0  0
  9 10  2  0  0  0
 10 11  1  0  0  0
 11 12  1  0  0  0
 11 13  2  0  0  0
 13 14  1  0  0  0
 14 15  2  0  0  0
 15 16  1  0  0  0
 16 17  2  0  0  0
 16  1  1  0  0  0
  8  3  1  0  0  0
 15  9  1  0  0  0
 27 18  1  0  0  0
 27 22  1  0  0  0
 32 35  1  0  0  0
M  END
> <minimizedAffinity>
-7.18975

> <CNNscore>
0.3836686909

> <CNNaffinity>
6.3092055321

> <CNN_VS>
2.4206445217

> <CNNaffinity_variance>
0.0956538841

$$$$



 35 39  0  0  0  0  0  0  0  0999 V2000
  -10.4926    3.7292  -24.0000 N   0  0  0  0  0  0  0  0  0  0  0  0
   -9.2411    2.9045  -23.9394 C   0  0  0  0  0  0  0  0  0  0  0  0
   -9.3291    1.4229  -23.7225 C   0  0  0  0  0  0  0  0  0  0  0  0
   -9.2602   -0.0608  -23.5125 C   0  0  0  0  0  0  0  0  0  0  0  0
   -9.9968   -1.0119  -23.3418 O   0  0  0  0  0  0  0  0  0  0  0  0
   -7.8153   -0.4636  -23.5215 N   0  0  0  0  0  0  0  0  0  0  0  0
   -6.9912    0.7711  -23.7370 C   0  0  0  0  0  0  0  0  0  0  0  0
   -7.9268    1.9369  -23.8612 C   0  0  0  0  0  0  0  0  0  0  0  0
  -10.6685    0.7659  -23.5662 C   0  0  0  0  0  0  0  0  0  0  0  0
  -10.7565   -0.7157  -23.3492 C   0  0  0  0  0  0  0  0  0  0  0  0
  -12.0959   -1.3725  -23.1929 C   0  0  0  0  0  0  0  0  0  0  0  0
  -12.1839   -2.8542  -22.9759 Cl  0  0  0  0  0  0  0  0  0  0  0  0
  -13.3473   -0.5478  -23.2535 C   0  0  0  0  0  0  0  0  0  0  0  0
  -13.2594    0.9338  -23.4704 C   0  0  0  0  0  0  0  0  0  0  0  0
  -11.9200    1.5907  -23.6267 C   0  0  0  0  0  0  0  0  0  0  0  0
  -11.8320    3.0723  -23.8437 C   0  0  0  0  0  0  0  0  0  0  0  0
  -13.0835    3.8971  -23.9043 O   0  0  0  0  0  0  0  0  0  0  0  0
   -7.2873   -1.8566  -23.3458 C   0  0  0  0  0  0  0  0  0  0  0  0
   -6.6918   -2.2730  -22.0335 C   0  0  0  0  0  0  0  0  0  0  0  0
   -6.1638   -3.6659  -21.8578 N   0  0  0  0  0  0  0  0  0  0  0  0
   -6.2312   -4.6425  -22.9944 C   0  0  0  0  0  0  0  0  0  0  0  0
   -6.8267   -4.2260  -24.3067 C   0  0  0  0  0  0  0  0  0  0  0  0
   -6.8941   -5.2026  -25.4433 C   0  0  0  0  0  0  0  0  0  0  0  0
   -7.4896   -4.7861  -26.7555 C   0  0  0  0  0  0  0  0  0  0  0  0
   -8.0177   -3.3932  -26.9312 C   0  0  0  0  0  0  0  0  0  0  0  0
   -7.9502   -2.4167  -25.7946 C   0  0  0  0  0  0  0  0  0  0  0  0
   -7.3547   -2.8331  -24.4824 C   0  0  0  0  0  0  0  0  0  0  0  0
   -7.5297    3.3660  -24.0849 C   0  0  0  0  0  0  0  0  0  0  0  0
   -6.0975    3.7808  -23.9221 Cl  0  0  0  0  0  0  0  0  0  0  0  0
  -10.4046    5.2109  -24.2170 C   0  0  0  0  0  0  0  0  0  0  0  0
  -12.1263    6.0405  -27.6951 C   0  0  0  0  0  0  0  0  0  0  0  0
  -11.8975    5.4679  -26.3277 N   0  0  0  0  0  0  0  0  0  0  0  0
  -10.6335    5.7835  -25.5843 C   0  0  0  0  0  0  0  0  0  0  0  0
   -9.5983    6.6719  -26.2083 O   0  0  0  0  0  0  0  0  0  0  0  0
  -12.5769    4.8848  -25.9182 H   0  0  0  0  0  0  0  0  0  0  0  0
 31 32  1  0  0  0
 32 33  1  0  0  0
 33 34  2  0  0  0
 33 30  1  0  0  0
 30  1  1  0  0  0
  1  2  1  0  0  0
  3  2  1  0  0  0
  3  4  1  0  0  0
  4  5  2  0  0  0
  4  6  1  0  0  0
  6 18  1  0  0  0
 18 19  2  0  0  0
 19 20  1  0  0  0
 20 21  2  0  0  0
 21 22  1  0  0  0
 22 23  2  0  0  0
 23 24  1  0  0  0
 24 25  2  0  0  0
 25 26  1  0  0  0
 26 27  2  0  0  0
  6  7  1  0  0  0
  7  8  1  0  0  0
  8 28  1  0  0  0
 28 29  1  0  0  0
  3  9  1  0  0  0
  9 10  2  0  0  0
 10 11  1  0  0  0
 11 12  1  0  0  0
 11 13  2  0  0  0
 13 14  1  0  0  0
 14 15  2  0  0  0
 15 16  1  0  0  0
 16 17  2  0  0  0
 16  1  1  0  0  0
  8  3  1  0  0  0
 15  9  1  0  0  0
 27 18  1  0  0  0
 27 22  1  0  0  0
 32 35  1  0  0  0
M  END
> <minimizedAffinity>
-6.85879

> <CNNscore>
0.3785397708

> <CNNaffinity>
6.3186082840

> <CNN_VS>
2.3918445110

> <CNNaffinity_variance>
0.3811634779

$$$$



 35 39  0  0  0  0  0  0  0  0999 V2000
   -7.6531   -3.8361  -26.0849 N   0  0  0  0  0  0  0  0  0  0  0  0
   -7.1383   -3.8963  -24.6773 C   0  0  0  0  0  0  0  0  0  0  0  0
   -6.9457   -2.6315  -23.8944 C   0  0  0  0  0  0  0  0  0  0  0  0
   -6.7035   -1.4572  -22.9931 C   0  0  0  0  0  0  0  0  0  0  0  0
   -6.7930   -0.2454  -22.9988 O   0  0  0  0  0  0  0  0  0  0  0  0
   -6.1909   -1.9766  -21.6826 N   0  0  0  0  0  0  0  0  0  0  0  0
   -6.1161   -3.4719  -21.7740 C   0  0  0  0  0  0  0  0  0  0  0  0
   -6.5826   -3.8767  -23.1409 C   0  0  0  0  0  0  0  0  0  0  0  0
   -7.2678   -1.3063  -24.5191 C   0  0  0  0  0  0  0  0  0  0  0  0
   -7.0751   -0.0414  -23.7362 C   0  0  0  0  0  0  0  0  0  0  0  0
   -7.3972    1.2837  -24.3609 C   0  0  0  0  0  0  0  0  0  0  0  0
   -7.2045    2.5486  -23.5780 Cl  0  0  0  0  0  0  0  0  0  0  0  0
   -7.9120    1.3439  -25.7685 C   0  0  0  0  0  0  0  0  0  0  0  0
   -8.1047    0.0791  -26.5514 C   0  0  0  0  0  0  0  0  0  0  0  0
   -7.7826   -1.2460  -25.9267 C   0  0  0  0  0  0  0  0  0  0  0  0
   -7.9752   -2.5110  -26.7096 C   0  0  0  0  0  0  0  0  0  0  0  0
   -8.4900   -2.4507  -28.1172 O   0  0  0  0  0  0  0  0  0  0  0  0
   -5.8183   -1.1463  -20.4902 C   0  0  0  0  0  0  0  0  0  0  0  0
   -6.5922   -1.2796  -19.2121 C   0  0  0  0  0  0  0  0  0  0  0  0
   -6.2197   -0.4494  -18.0197 N   0  0  0  0  0  0  0  0  0  0  0  0
   -5.0733    0.5141  -18.1052 C   0  0  0  0  0  0  0  0  0  0  0  0
   -4.2994    0.6473  -19.3833 C   0  0  0  0  0  0  0  0  0  0  0  0
   -3.1529    1.6109  -19.4688 C   0  0  0  0  0  0  0  0  0  0  0  0
   -2.3790    1.7441  -20.7469 C   0  0  0  0  0  0  0  0  0  0  0  0
   -2.7515    0.9139  -21.9393 C   0  0  0  0  0  0  0  0  0  0  0  0
   -3.8980   -0.0496  -21.8538 C   0  0  0  0  0  0  0  0  0  0  0  0
   -4.6719   -0.1829  -20.5757 C   0  0  0  0  0  0  0  0  0  0  0  0
   -6.6706   -5.2802  -23.6627 C   0  0  0  0  0  0  0  0  0  0  0  0
   -7.3900   -6.3313  -22.8705 Cl  0  0  0  0  0  0  0  0  0  0  0  0
   -7.8458   -5.1010  -26.8679 C   0  0  0  0  0  0  0  0  0  0  0  0
   -5.2687   -7.6352  -28.5069 C   0  0  0  0  0  0  0  0  0  0  0  0
   -6.3864   -7.0980  -27.6629 N   0  0  0  0  0  0  0  0  0  0  0  0
   -6.7282   -5.6383  -27.7118 C   0  0  0  0  0  0  0  0  0  0  0  0
   -5.9523   -4.7158  -28.6046 O   0  0  0  0  0  0  0  0  0  0  0  0
   -6.8956   -7.7034  -27.0770 H   0  0  0  0  0  0  0  0  0  0  0  0
 31 32  1  0  0  0
 32 33  1  0  0  0
 33 34  2  0  0  0
 33 30  1  0  0  0
 30  1  1  0  0  0
  1  2  1  0  0  0
  3  2  1  0  0  0
  3  4  1  0  0  0
  4  5  2  0  0  0
  4  6  1  0  0  0
  6 18  1  0  0  0
 18 19  2  0  0  0
 19 20  1  0  0  0
 20 21  2  0  0  0
 21 22  1  0  0  0
 22 23  2  0  0  0
 23 24  1  0  0  0
 24 25  2  0  0  0
 25 26  1  0  0  0
 26 27  2  0  0  0
  6  7  1  0  0  0
  7  8  1  0  0  0
  8 28  1  0  0  0
 28 29  1  0  0  0
  3  9  1  0  0  0
  9 10  2  0  0  0
 10 11  1  0  0  0
 11 12  1  0  0  0
 11 13  2  0  0  0
 13 14  1  0  0  0
 14 15  2  0  0  0
 15 16  1  0  0  0
 16 17  2  0  0  0
 16  1  1  0  0  0
  8  3  1  0  0  0
 15  9  1  0  0  0
 27 18  1  0  0  0
 27 22  1  0  0  0
 32 35  1  0  0  0
M  END
> <minimizedAffinity>
-7.82042

> <CNNscore>
0.3239619434

> <CNNaffinity>
6.2583661079

> <CNN_VS>
2.0274724960

> <CNNaffinity_variance>
0.1353517920

$$$$



 35 39  0  0  0  0  0  0  0  0999 V2000
  -11.6393    3.8860  -24.0141 N   0  0  0  0  0  0  0  0  0  0  0  0
  -10.2491    3.3331  -23.9063 C   0  0  0  0  0  0  0  0  0  0  0  0
  -10.0417    1.8693  -23.6526 C   0  0  0  0  0  0  0  0  0  0  0  0
   -9.6801    0.4352  -23.4025 C   0  0  0  0  0  0  0  0  0  0  0  0
  -10.2137   -0.6414  -23.2222 O   0  0  0  0  0  0  0  0  0  0  0  0
   -8.1840    0.3330  -23.3713 N   0  0  0  0  0  0  0  0  0  0  0  0
   -7.6208    1.7040  -23.6020 C   0  0  0  0  0  0  0  0  0  0  0  0
   -8.7689    2.6535  -23.7759 C   0  0  0  0  0  0  0  0  0  0  0  0
  -11.2245    0.9584  -23.5066 C   0  0  0  0  0  0  0  0  0  0  0  0
  -11.0172   -0.5053  -23.2529 C   0  0  0  0  0  0  0  0  0  0  0  0
  -12.2000   -1.4161  -23.1070 C   0  0  0  0  0  0  0  0  0  0  0  0
  -11.9926   -2.8799  -22.8532 Cl  0  0  0  0  0  0  0  0  0  0  0  0
  -13.5902   -0.8632  -23.2148 C   0  0  0  0  0  0  0  0  0  0  0  0
  -13.7976    0.6005  -23.4685 C   0  0  0  0  0  0  0  0  0  0  0  0
  -12.6147    1.5114  -23.6145 C   0  0  0  0  0  0  0  0  0  0  0  0
  -12.8221    2.9752  -23.8682 C   0  0  0  0  0  0  0  0  0  0  0  0
  -14.2123    3.5281  -23.9760 O   0  0  0  0  0  0  0  0  0  0  0  0
   -7.3903   -0.9202  -23.1484 C   0  0  0  0  0  0  0  0  0  0  0  0
   -7.1407   -1.8626  -24.2884 C   0  0  0  0  0  0  0  0  0  0  0  0
   -6.3471   -3.1158  -24.0656 N   0  0  0  0  0  0  0  0  0  0  0  0
   -5.8030   -3.4265  -22.7027 C   0  0  0  0  0  0  0  0  0  0  0  0
   -6.0526   -2.4841  -21.5627 C   0  0  0  0  0  0  0  0  0  0  0  0
   -5.5085   -2.7949  -20.1998 C   0  0  0  0  0  0  0  0  0  0  0  0
   -5.7581   -1.8524  -19.0599 C   0  0  0  0  0  0  0  0  0  0  0  0
   -6.5517   -0.5992  -19.2827 C   0  0  0  0  0  0  0  0  0  0  0  0
   -7.0958   -0.2885  -20.6456 C   0  0  0  0  0  0  0  0  0  0  0  0
   -6.8462   -1.2309  -21.7856 C   0  0  0  0  0  0  0  0  0  0  0  0
   -8.6629    4.1282  -24.0287 C   0  0  0  0  0  0  0  0  0  0  0  0
   -7.6575    4.9479  -23.2757 Cl  0  0  0  0  0  0  0  0  0  0  0  0
  -11.8467    5.3498  -24.2679 C   0  0  0  0  0  0  0  0  0  0  0  0
  -13.9645    6.4535  -27.4375 C   0  0  0  0  0  0  0  0  0  0  0  0
  -13.6233    5.9723  -26.0584 N   0  0  0  0  0  0  0  0  0  0  0  0
  -12.1878    5.8309  -25.6471 C   0  0  0  0  0  0  0  0  0  0  0  0
  -11.0933    6.1707  -26.6150 O   0  0  0  0  0  0  0  0  0  0  0  0
  -14.3416    5.7494  -25.4231 H   0  0  0  0  0  0  0  0  0  0  0  0
 31 32  1  0  0  0
 32 33  1  0  0  0
 33 34  2  0  0  0
 33 30  1  0  0  0
 30  1  1  0  0  0
  1  2  1  0  0  0
  3  2  1  0  0  0
  3  4  1  0  0  0
  4  5  2  0  0  0
  4  6  1  0  0  0
  6 18  1  0  0  0
 18 19  2  0  0  0
 19 20  1  0  0  0
 20 21  2  0  0  0
 21 22  1  0  0  0
 22 23  2  0  0  0
 23 24  1  0  0  0
 24 25  2  0  0  0
 25 26  1  0  0  0
 26 27  2  0  0  0
  6  7  1  0  0  0
  7  8  1  0  0  0
  8 28  1  0  0  0
 28 29  1  0  0  0
  3  9  1  0  0  0
  9 10  2  0  0  0
 10 11  1  0  0  0
 11 12  1  0  0  0
 11 13  2  0  0  0
 13 14  1  0  0  0
 14 15  2  0  0  0
 15 16  1  0  0  0
 16 17  2  0  0  0
 16  1  1  0  0  0
  8  3  1  0  0  0
 15  9  1  0  0  0
 27 18  1  0  0  0
 27 22  1  0  0  0
 32 35  1  0  0  0
M  END
> <minimizedAffinity>
-7.94781

> <CNNscore>
0.3039487004

> <CNNaffinity>
6.3384556770

> <CNN_VS>
1.9265654087

> <CNNaffinity_variance>
0.0466720536

$$$$



 35 39  0  0  0  0  0  0  0  0999 V2000
   -8.2895   -2.4949  -22.8653 N   0  0  0  0  0  0  0  0  0  0  0  0
   -9.5913   -1.7870  -23.0982 C   0  0  0  0  0  0  0  0  0  0  0  0
   -9.6479   -0.2887  -23.0579 C   0  0  0  0  0  0  0  0  0  0  0  0
   -9.8580    1.1965  -23.0484 C   0  0  0  0  0  0  0  0  0  0  0  0
   -9.2300    2.2244  -22.8889 O   0  0  0  0  0  0  0  0  0  0  0  0
  -11.3081    1.4614  -23.3259 N   0  0  0  0  0  0  0  0  0  0  0  0
  -11.9943    0.1399  -23.5069 C   0  0  0  0  0  0  0  0  0  0  0  0
  -10.9682   -0.9417  -23.3413 C   0  0  0  0  0  0  0  0  0  0  0  0
   -8.4027    0.5019  -22.7846 C   0  0  0  0  0  0  0  0  0  0  0  0
   -8.4594    2.0003  -22.7443 C   0  0  0  0  0  0  0  0  0  0  0  0
   -7.2143    2.7907  -22.4711 C   0  0  0  0  0  0  0  0  0  0  0  0
   -7.2709    4.2892  -22.4307 Cl  0  0  0  0  0  0  0  0  0  0  0  0
   -5.9125    2.0829  -22.2381 C   0  0  0  0  0  0  0  0  0  0  0  0
   -5.8558    0.5845  -22.2785 C   0  0  0  0  0  0  0  0  0  0  0  0
   -7.1009   -0.2060  -22.5517 C   0  0  0  0  0  0  0  0  0  0  0  0
   -7.0443   -1.7044  -22.5920 C   0  0  0  0  0  0  0  0  0  0  0  0
   -5.7425   -2.4123  -22.3591 O   0  0  0  0  0  0  0  0  0  0  0  0
  -11.9579    2.8108  -23.4079 C   0  0  0  0  0  0  0  0  0  0  0  0
  -12.9844    3.2121  -22.3904 C   0  0  0  0  0  0  0  0  0  0  0  0
  -13.6342    4.5615  -22.4724 N   0  0  0  0  0  0  0  0  0  0  0  0
  -13.2575    5.5097  -23.5719 C   0  0  0  0  0  0  0  0  0  0  0  0
  -12.2310    5.1085  -24.5894 C   0  0  0  0  0  0  0  0  0  0  0  0
  -11.8543    6.0567  -25.6890 C   0  0  0  0  0  0  0  0  0  0  0  0
  -10.8278    5.6554  -26.7065 C   0  0  0  0  0  0  0  0  0  0  0  0
  -10.1780    4.3060  -26.6245 C   0  0  0  0  0  0  0  0  0  0  0  0
  -10.5547    3.3578  -25.5249 C   0  0  0  0  0  0  0  0  0  0  0  0
  -11.5812    3.7590  -24.5074 C   0  0  0  0  0  0  0  0  0  0  0  0
  -11.2186   -2.4172  -23.4415 C   0  0  0  0  0  0  0  0  0  0  0  0
  -12.4624   -3.0090  -22.8479 Cl  0  0  0  0  0  0  0  0  0  0  0  0
   -8.2329   -3.9933  -22.9056 C   0  0  0  0  0  0  0  0  0  0  0  0
   -8.4545   -6.9244  -25.5720 C   0  0  0  0  0  0  0  0  0  0  0  0
   -8.3957   -6.2069  -24.2561 N   0  0  0  0  0  0  0  0  0  0  0  0
   -8.2916   -4.7109  -24.2216 C   0  0  0  0  0  0  0  0  0  0  0  0
   -8.2463   -3.9325  -25.5030 O   0  0  0  0  0  0  0  0  0  0  0  0
   -8.4255   -6.7178  -23.4150 H   0  0  0  0  0  0  0  0  0  0  0  0
 31 32  1  0  0  0
 32 33  1  0  0  0
 33 34  2  0  0  0
 33 30  1  0  0  0
 30  1  1  0  0  0
  1  2  1  0  0  0
  3  2  1  0  0  0
  3  4  1  0  0  0
  4  5  2  0  0  0
  4  6  1  0  0  0
  6 18  1  0  0  0
 18 19  2  0  0  0
 19 20  1  0  0  0
 20 21  2  0  0  0
 21 22  1  0  0  0
 22 23  2  0  0  0
 23 24  1  0  0  0
 24 25  2  0  0  0
 25 26  1  0  0  0
 26 27  2  0  0  0
  6  7  1  0  0  0
  7  8  1  0  0  0
  8 28  1  0  0  0
 28 29  1  0  0  0
  3  9  1  0  0  0
  9 10  2  0  0  0
 10 11  1  0  0  0
 11 12  1  0  0  0
 11 13  2  0  0  0
 13 14  1  0  0  0
 14 15  2  0  0  0
 15 16  1  0  0  0
 16 17  2  0  0  0
 16  1  1  0  0  0
  8  3  1  0  0  0
 15  9  1  0  0  0
 27 18  1  0  0  0
 27 22  1  0  0  0
 32 35  1  0  0  0
M  END
> <minimizedAffinity>
-7.33877

> <CNNscore>
0.2764564157

> <CNNaffinity>
6.2874531746

> <CNN_VS>
1.7382067442

> <CNNaffinity_variance>
0.0404538140

$$$$



 35 39  0  0  0  0  0  0  0  0999 V2000
  -11.8205    1.5237  -23.3905 N   0  0  0  0  0  0  0  0  0  0  0  0
  -11.7519    0.0255  -23.3654 C   0  0  0  0  0  0  0  0  0  0  0  0
  -10.4678   -0.6722  -23.7034 C   0  0  0  0  0  0  0  0  0  0  0  0
   -9.2600   -1.5049  -24.0162 C   0  0  0  0  0  0  0  0  0  0  0  0
   -8.0977   -1.3723  -24.3447 O   0  0  0  0  0  0  0  0  0  0  0  0
   -9.6406   -2.9481  -23.8672 N   0  0  0  0  0  0  0  0  0  0  0  0
  -11.0837   -3.0075  -23.4624 C   0  0  0  0  0  0  0  0  0  0  0  0
  -11.5949   -1.6009  -23.3611 C   0  0  0  0  0  0  0  0  0  0  0  0
   -9.2523    0.1283  -24.0666 C   0  0  0  0  0  0  0  0  0  0  0  0
   -7.9682   -0.5694  -24.4046 C   0  0  0  0  0  0  0  0  0  0  0  0
   -6.7528    0.2311  -24.7677 C   0  0  0  0  0  0  0  0  0  0  0  0
   -5.4687   -0.4666  -25.1058 Cl  0  0  0  0  0  0  0  0  0  0  0  0
   -6.8215    1.7293  -24.7929 C   0  0  0  0  0  0  0  0  0  0  0  0
   -8.1056    2.4270  -24.4548 C   0  0  0  0  0  0  0  0  0  0  0  0
   -9.3210    1.6265  -24.0917 C   0  0  0  0  0  0  0  0  0  0  0  0
  -10.6051    2.3242  -23.7536 C   0  0  0  0  0  0  0  0  0  0  0  0
  -10.6738    3.8224  -23.7788 O   0  0  0  0  0  0  0  0  0  0  0  0
   -8.7368   -4.1253  -24.0848 C   0  0  0  0  0  0  0  0  0  0  0  0
   -7.8157   -4.5762  -22.9901 C   0  0  0  0  0  0  0  0  0  0  0  0
   -6.9119   -5.7534  -23.2078 N   0  0  0  0  0  0  0  0  0  0  0  0
   -6.9291   -6.4796  -24.5201 C   0  0  0  0  0  0  0  0  0  0  0  0
   -7.8502   -6.0287  -25.6148 C   0  0  0  0  0  0  0  0  0  0  0  0
   -7.8674   -6.7550  -26.9272 C   0  0  0  0  0  0  0  0  0  0  0  0
   -8.7885   -6.3040  -28.0218 C   0  0  0  0  0  0  0  0  0  0  0  0
   -9.6924   -5.1268  -27.8042 C   0  0  0  0  0  0  0  0  0  0  0  0
   -9.6751   -4.4006  -26.4918 C   0  0  0  0  0  0  0  0  0  0  0  0
   -8.7540   -4.8515  -25.3972 C   0  0  0  0  0  0  0  0  0  0  0  0
  -12.9886   -1.1944  -22.9839 C   0  0  0  0  0  0  0  0  0  0  0  0
  -13.9007   -2.1774  -22.3119 Cl  0  0  0  0  0  0  0  0  0  0  0  0
  -13.1047    2.2214  -23.0525 C   0  0  0  0  0  0  0  0  0  0  0  0
  -13.4493    5.1802  -25.6748 C   0  0  0  0  0  0  0  0  0  0  0  0
  -13.1533    3.8301  -25.0920 N   0  0  0  0  0  0  0  0  0  0  0  0
  -13.4007    3.5715  -23.6353 C   0  0  0  0  0  0  0  0  0  0  0  0
  -13.9441    4.6629  -22.7615 O   0  0  0  0  0  0  0  0  0  0  0  0
  -12.7966    3.1138  -25.6655 H   0  0  0  0  0  0  0  0  0  0  0  0
 31 32  1  0  0  0
 32 33  1  0  0  0
 33 34  2  0  0  0
 33 30  1  0  0  0
 30  1  1  0  0  0
  1  2  1  0  0  0
  3  2  1  0  0  0
  3  4  1  0  0  0
  4  5  2  0  0  0
  4  6  1  0  0  0
  6 18  1  0  0  0
 18 19  2  0  0  0
 19 20  1  0  0  0
 20 21  2  0  0  0
 21 22  1  0  0  0
 22 23  2  0  0  0
 23 24  1  0  0  0
 24 25  2  0  0  0
 25 26  1  0  0  0
 26 27  2  0  0  0
  6  7  1  0  0  0
  7  8  1  0  0  0
  8 28  1  0  0  0
 28 29  1  0  0  0
  3  9  1  0  0  0
  9 10  2  0  0  0
 10 11  1  0  0  0
 11 12  1  0  0  0
 11 13  2  0  0  0
 13 14  1  0  0  0
 14 15  2  0  0  0
 15 16  1  0  0  0
 16 17  2  0  0  0
 16  1  1  0  0  0
  8  3  1  0  0  0
 15  9  1  0  0  0
 27 18  1  0  0  0
 27 22  1  0  0  0
 32 35  1  0  0  0
M  END
> <minimizedAffinity>
-8.16870

> <CNNscore>
0.2415800244

> <CNNaffinity>
6.2597031593

> <CNN_VS>
1.5122191906

> <CNNaffinity_variance>
0.1718415916

$$$$



 35 39  0  0  0  0  0  0  0  0999 V2000
   -7.4328   -1.6851  -23.7104 N   0  0  0  0  0  0  0  0  0  0  0  0
   -8.8631   -1.2331  -23.7187 C   0  0  0  0  0  0  0  0  0  0  0  0
   -9.1908    0.2217  -23.5570 C   0  0  0  0  0  0  0  0  0  0  0  0
   -9.6696    1.6353  -23.4070 C   0  0  0  0  0  0  0  0  0  0  0  0
   -9.2274    2.7563  -23.2518 O   0  0  0  0  0  0  0  0  0  0  0  0
  -11.1681    1.6268  -23.4740 N   0  0  0  0  0  0  0  0  0  0  0  0
  -11.6154    0.2079  -23.6654 C   0  0  0  0  0  0  0  0  0  0  0  0
  -10.3934   -0.6605  -23.7167 C   0  0  0  0  0  0  0  0  0  0  0  0
   -8.0883    1.2246  -23.3871 C   0  0  0  0  0  0  0  0  0  0  0  0
   -8.4160    2.6793  -23.2254 C   0  0  0  0  0  0  0  0  0  0  0  0
   -7.3135    3.6821  -23.0555 C   0  0  0  0  0  0  0  0  0  0  0  0
   -7.6412    5.1369  -22.8938 Cl  0  0  0  0  0  0  0  0  0  0  0  0
   -5.8833    3.2301  -23.0472 C   0  0  0  0  0  0  0  0  0  0  0  0
   -5.5555    1.7753  -23.2089 C   0  0  0  0  0  0  0  0  0  0  0  0
   -6.6580    0.7725  -23.3788 C   0  0  0  0  0  0  0  0  0  0  0  0
   -6.3303   -0.6823  -23.5405 C   0  0  0  0  0  0  0  0  0  0  0  0
   -4.9001   -1.1344  -23.5322 O   0  0  0  0  0  0  0  0  0  0  0  0
  -12.0622    2.8265  -23.3682 C   0  0  0  0  0  0  0  0  0  0  0  0
  -12.9953    2.9659  -22.2020 C   0  0  0  0  0  0  0  0  0  0  0  0
  -13.8895    4.1657  -22.0961 N   0  0  0  0  0  0  0  0  0  0  0  0
  -13.8505    5.2259  -23.1565 C   0  0  0  0  0  0  0  0  0  0  0  0
  -12.9174    5.0864  -24.3226 C   0  0  0  0  0  0  0  0  0  0  0  0
  -12.8785    6.1468  -25.3830 C   0  0  0  0  0  0  0  0  0  0  0  0
  -11.9454    6.0072  -26.5492 C   0  0  0  0  0  0  0  0  0  0  0  0
  -11.0513    4.8075  -26.6550 C   0  0  0  0  0  0  0  0  0  0  0  0
  -11.0902    3.7473  -25.5947 C   0  0  0  0  0  0  0  0  0  0  0  0
  -12.0233    3.8867  -24.4285 C   0  0  0  0  0  0  0  0  0  0  0  0
  -10.3769   -2.1496  -23.8962 C   0  0  0  0  0  0  0  0  0  0  0  0
  -11.4849   -2.9859  -23.3281 Cl  0  0  0  0  0  0  0  0  0  0  0  0
   -7.1051   -3.1399  -23.8720 C   0  0  0  0  0  0  0  0  0  0  0  0
   -5.7654   -6.1711  -21.6887 C   0  0  0  0  0  0  0  0  0  0  0  0
   -6.3130   -5.3924  -22.8479 N   0  0  0  0  0  0  0  0  0  0  0  0
   -6.5575   -3.9187  -22.7129 C   0  0  0  0  0  0  0  0  0  0  0  0
   -6.2543   -3.2236  -21.4186 O   0  0  0  0  0  0  0  0  0  0  0  0
   -6.5120   -5.8486  -23.6973 H   0  0  0  0  0  0  0  0  0  0  0  0
 31 32  1  0  0  0
 32 33  1  0  0  0
 33 34  2  0  0  0
 33 30  1  0  0  0
 30  1  1  0  0  0
  1  2  1  0  0  0
  3  2  1  0  0  0
  3  4  1  0  0  0
  4  5  2  0  0  0
  4  6  1  0  0  0
  6 18  1  0  0  0
 18 19  2  0  0  0
 19 20  1  0  0  0
 20 21  2  0  0  0
 21 22  1  0  0  0
 22 23  2  0  0  0
 23 24  1  0  0  0
 24 25  2  0  0  0
 25 26  1  0  0  0
 26 27  2  0  0  0
  6  7  1  0  0  0
  7  8  1  0  0  0
  8 28  1  0  0  0
 28 29  1  0  0  0
  3  9  1  0  0  0
  9 10  2  0  0  0
 10 11  1  0  0  0
 11 12  1  0  0  0
 11 13  2  0  0  0
 13 14  1  0  0  0
 14 15  2  0  0  0
 15 16  1  0  0  0
 16 17  2  0  0  0
 16  1  1  0  0  0
  8  3  1  0  0  0
 15  9  1  0  0  0
 27 18  1  0  0  0
 27 22  1  0  0  0
 32 35  1  0  0  0
M  END
> <minimizedAffinity>
-7.01587

> <CNNscore>
0.2350531369

> <CNNaffinity>
6.1747879982

> <CNN_VS>
1.4514032602

> <CNNaffinity_variance>
0.0323108472

$$$$



 35 39  0  0  0  0  0  0  0  0999 V2000
   -7.1908   -3.6998  -22.4087 N   0  0  0  0  0  0  0  0  0  0  0  0
   -8.1770   -2.9125  -23.2196 C   0  0  0  0  0  0  0  0  0  0  0  0
   -8.0842   -1.4162  -23.2671 C   0  0  0  0  0  0  0  0  0  0  0  0
   -8.1165    0.0767  -23.4093 C   0  0  0  0  0  0  0  0  0  0  0  0
   -7.5141    1.0612  -23.0294 O   0  0  0  0  0  0  0  0  0  0  0  0
   -9.2636    0.4320  -24.3082 N   0  0  0  0  0  0  0  0  0  0  0  0
   -9.9402   -0.8413  -24.7216 C   0  0  0  0  0  0  0  0  0  0  0  0
   -9.2113   -1.9835  -24.0782 C   0  0  0  0  0  0  0  0  0  0  0  0
   -7.0051   -0.7071  -22.5036 C   0  0  0  0  0  0  0  0  0  0  0  0
   -6.9123    0.7893  -22.5510 C   0  0  0  0  0  0  0  0  0  0  0  0
   -5.8333    1.4983  -21.7876 C   0  0  0  0  0  0  0  0  0  0  0  0
   -5.7404    2.9947  -21.8350 Cl  0  0  0  0  0  0  0  0  0  0  0  0
   -4.8471    0.7110  -20.9767 C   0  0  0  0  0  0  0  0  0  0  0  0
   -4.9399   -0.7853  -20.9293 C   0  0  0  0  0  0  0  0  0  0  0  0
   -6.0189   -1.4944  -21.6927 C   0  0  0  0  0  0  0  0  0  0  0  0
   -6.1118   -2.9908  -21.6453 C   0  0  0  0  0  0  0  0  0  0  0  0
   -5.1256   -3.7781  -20.8344 O   0  0  0  0  0  0  0  0  0  0  0  0
   -9.6637    1.8174  -24.7213 C   0  0  0  0  0  0  0  0  0  0  0  0
   -8.9449    2.5018  -25.8459 C   0  0  0  0  0  0  0  0  0  0  0  0
   -9.3450    3.8872  -26.2590 N   0  0  0  0  0  0  0  0  0  0  0  0
  -10.4640    4.5882  -25.5473 C   0  0  0  0  0  0  0  0  0  0  0  0
  -11.1828    3.9037  -24.4226 C   0  0  0  0  0  0  0  0  0  0  0  0
  -12.3019    4.6048  -23.7109 C   0  0  0  0  0  0  0  0  0  0  0  0
  -13.0207    3.9203  -22.5863 C   0  0  0  0  0  0  0  0  0  0  0  0
  -12.6205    2.5349  -22.1733 C   0  0  0  0  0  0  0  0  0  0  0  0
  -11.5015    1.8339  -22.8849 C   0  0  0  0  0  0  0  0  0  0  0  0
  -10.7827    2.5184  -24.0096 C   0  0  0  0  0  0  0  0  0  0  0  0
   -9.5500   -3.4378  -24.2208 C   0  0  0  0  0  0  0  0  0  0  0  0
  -10.6417   -3.8654  -25.1563 Cl  0  0  0  0  0  0  0  0  0  0  0  0
   -7.2837   -5.1963  -22.3613 C   0  0  0  0  0  0  0  0  0  0  0  0
   -3.7561   -6.7684  -23.2748 C   0  0  0  0  0  0  0  0  0  0  0  0
   -5.0048   -5.9418  -23.3617 N   0  0  0  0  0  0  0  0  0  0  0  0
   -6.0350   -6.0228  -22.2744 C   0  0  0  0  0  0  0  0  0  0  0  0
   -5.8164   -6.9303  -21.1002 O   0  0  0  0  0  0  0  0  0  0  0  0
   -5.1483   -5.3462  -24.1324 H   0  0  0  0  0  0  0  0  0  0  0  0
 31 32  1  0  0  0
 32 33  1  0  0  0
 33 34  2  0  0  0
 33 30  1  0  0  0
 30  1  1  0  0  0
  1  2  1  0  0  0
  3  2  1  0  0  0
  3  4  1  0  0  0
  4  5  2  0  0  0
  4  6  1  0  0  0
  6 18  1  0  0  0
 18 19  2  0  0  0
 19 20  1  0  0  0
 20 21  2  0  0  0
 21 22  1  0  0  0
 22 23  2  0  0  0
 23 24  1  0  0  0
 24 25  2  0  0  0
 25 26  1  0  0  0
 26 27  2  0  0  0
  6  7  1  0  0  0
  7  8  1  0  0  0
  8 28  1  0  0  0
 28 29  1  0  0  0
  3  9  1  0  0  0
  9 10  2  0  0  0
 10 11  1  0  0  0
 11 12  1  0  0  0
 11 13  2  0  0  0
 13 14  1  0  0  0
 14 15  2  0  0  0
 15 16  1  0  0  0
 16 17  2  0  0  0
 16  1  1  0  0  0
  8  3  1  0  0  0
 15  9  1  0  0  0
 27 18  1  0  0  0
 27 22  1  0  0  0
 32 35  1  0  0  0
M  END
> <minimizedAffinity>
-7.37634

> <CNNscore>
0.2227025926

> <CNNaffinity>
6.2392005920

> <CNN_VS>
1.3894861937

> <CNNaffinity_variance>
0.2070765793

$$$$
