


 35 39  0  0  0  0  0  0  0  0999 V2000
    4.0561   -5.0452   25.7483 N   0  0  0  0  0  0  0  0  0  0  0  0
    5.3937   -4.8865   25.0884 C   0  0  0  0  0  0  0  0  0  0  0  0
    6.1859   -3.6291   25.2916 C   0  0  0  0  0  0  0  0  0  0  0  0
    7.0874   -2.4353   25.4018 C   0  0  0  0  0  0  0  0  0  0  0  0
    7.1269   -1.3450   25.9366 O   0  0  0  0  0  0  0  0  0  0  0  0
    8.3156   -2.7047   24.5840 N   0  0  0  0  0  0  0  0  0  0  0  0
    8.1732   -4.0651   23.9683 C   0  0  0  0  0  0  0  0  0  0  0  0
    6.8570   -4.6364   24.4056 C   0  0  0  0  0  0  0  0  0  0  0  0
    5.6404   -2.5302   26.1548 C   0  0  0  0  0  0  0  0  0  0  0  0
    6.4325   -1.2728   26.3581 C   0  0  0  0  0  0  0  0  0  0  0  0
    5.8870   -0.1741   27.2212 C   0  0  0  0  0  0  0  0  0  0  0  0
    6.6791    1.0835   27.4245 Cl  0  0  0  0  0  0  0  0  0  0  0  0
    4.5493   -0.3327   27.8811 C   0  0  0  0  0  0  0  0  0  0  0  0
    3.7572   -1.5901   27.6779 C   0  0  0  0  0  0  0  0  0  0  0  0
    4.3027   -2.6889   26.8147 C   0  0  0  0  0  0  0  0  0  0  0  0
    3.5106   -3.9464   26.6114 C   0  0  0  0  0  0  0  0  0  0  0  0
    2.1729   -4.1051   27.2714 O   0  0  0  0  0  0  0  0  0  0  0  0
    9.4814   -1.7767   24.4120 C   0  0  0  0  0  0  0  0  0  0  0  0
    9.3371   -0.5374   23.5795 C   0  0  0  0  0  0  0  0  0  0  0  0
   10.5030    0.3906   23.4075 N   0  0  0  0  0  0  0  0  0  0  0  0
   11.8132    0.0792   24.0681 C   0  0  0  0  0  0  0  0  0  0  0  0
   11.9575   -1.1601   24.9007 C   0  0  0  0  0  0  0  0  0  0  0  0
   13.2678   -1.4715   25.5613 C   0  0  0  0  0  0  0  0  0  0  0  0
   13.4120   -2.7109   26.3938 C   0  0  0  0  0  0  0  0  0  0  0  0
   12.2461   -3.6389   26.5658 C   0  0  0  0  0  0  0  0  0  0  0  0
   10.9359   -3.3275   25.9052 C   0  0  0  0  0  0  0  0  0  0  0  0
   10.7916   -2.0881   25.0726 C   0  0  0  0  0  0  0  0  0  0  0  0
    6.3082   -5.9792   24.0240 C   0  0  0  0  0  0  0  0  0  0  0  0
    7.2424   -7.1004   23.6777 Cl  0  0  0  0  0  0  0  0  0  0  0  0
    3.2639   -6.3027   25.5450 C   0  0  0  0  0  0  0  0  0  0  0  0
    0.0152   -6.6092   23.2863 C   0  0  0  0  0  0  0  0  0  0  0  0
    0.8937   -6.4630   24.4933 N   0  0  0  0  0  0  0  0  0  0  0  0
    2.3855   -6.4488   24.3379 C   0  0  0  0  0  0  0  0  0  0  0  0
    2.9989   -6.5807   22.9754 O   0  0  0  0  0  0  0  0  0  0  0  0
    0.4910   -6.3765   25.3876 H   0  0  0  0  0  0  0  0  0  0  0  0
 31 32  1  0  0  0
 32 33  1  0  0  0
 33 34  2  0  0  0
 33 30  1  0  0  0
 30  1  1  0  0  0
  1  2  1  0  0  0
  3  2  1  0  0  0
  3  4  1  0  0  0
  4  5  2  0  0  0
  4  6  1  0  0  0
  6 18  1  0  0  0
 18 19  2  0  0  0
 19 20  1  0  0  0
 20 21  2  0  0  0
 21 22  1  0  0  0
 22 23  2  0  0  0
 23 24  1  0  0  0
 24 25  2  0  0  0
 25 26  1  0  0  0
 26 27  2  0  0  0
  6  7  1  0  0  0
  7  8  1  0  0  0
  8 28  1  0  0  0
 28 29  1  0  0  0
  3  9  1  0  0  0
  9 10  2  0  0  0
 10 11  1  0  0  0
 11 12  1  0  0  0
 11 13  2  0  0  0
 13 14  1  0  0  0
 14 15  2  0  0  0
 15 16  1  0  0  0
 16 17  2  0  0  0
 16  1  1  0  0  0
  8  3  1  0  0  0
 15  9  1  0  0  0
 27 18  1  0  0  0
 27 22  1  0  0  0
 32 35  1  0  0  0
M  END
> <minimizedAffinity>
-7.32993

> <CNNscore>
0.4733617902

> <CNNaffinity>
6.4782152176

> <CNN_VS>
3.0665395260

> <CNNaffinity_variance>
0.0583227649

$$$$



 35 39  0  0  0  0  0  0  0  0999 V2000
   10.9136    1.5273   22.8096 N   0  0  0  0  0  0  0  0  0  0  0  0
    9.5244    1.2506   23.3032 C   0  0  0  0  0  0  0  0  0  0  0  0
    9.2728    0.0961   24.2271 C   0  0  0  0  0  0  0  0  0  0  0  0
    8.8700   -1.0158   25.1498 C   0  0  0  0  0  0  0  0  0  0  0  0
    9.3618   -1.9484   25.7538 O   0  0  0  0  0  0  0  0  0  0  0  0
    7.3907   -0.9164   25.3775 N   0  0  0  0  0  0  0  0  0  0  0  0
    6.8792    0.2570   24.5956 C   0  0  0  0  0  0  0  0  0  0  0  0
    8.0424    0.8828   23.8846 C   0  0  0  0  0  0  0  0  0  0  0  0
   10.4104   -0.7818   24.6576 C   0  0  0  0  0  0  0  0  0  0  0  0
   10.1587   -1.9363   25.5815 C   0  0  0  0  0  0  0  0  0  0  0  0
   11.2963   -2.8141   26.0119 C   0  0  0  0  0  0  0  0  0  0  0  0
   11.0447   -3.9687   26.9359 Cl  0  0  0  0  0  0  0  0  0  0  0  0
   12.6855   -2.5374   25.5184 C   0  0  0  0  0  0  0  0  0  0  0  0
   12.9372   -1.3829   24.5945 C   0  0  0  0  0  0  0  0  0  0  0  0
   11.7996   -0.5051   24.1641 C   0  0  0  0  0  0  0  0  0  0  0  0
   12.0512    0.6495   23.2401 C   0  0  0  0  0  0  0  0  0  0  0  0
   13.4404    0.9262   22.7466 O   0  0  0  0  0  0  0  0  0  0  0  0
    6.5675   -1.8300   26.2364 C   0  0  0  0  0  0  0  0  0  0  0  0
    6.3690   -3.2612   25.8337 C   0  0  0  0  0  0  0  0  0  0  0  0
    5.5458   -4.1748   26.6925 N   0  0  0  0  0  0  0  0  0  0  0  0
    4.9211   -3.6571   27.9542 C   0  0  0  0  0  0  0  0  0  0  0  0
    5.1197   -2.2259   28.3570 C   0  0  0  0  0  0  0  0  0  0  0  0
    4.4950   -1.7082   29.6187 C   0  0  0  0  0  0  0  0  0  0  0  0
    4.6936   -0.2770   30.0214 C   0  0  0  0  0  0  0  0  0  0  0  0
    5.5168    0.6366   29.1625 C   0  0  0  0  0  0  0  0  0  0  0  0
    6.1414    0.1189   27.9009 C   0  0  0  0  0  0  0  0  0  0  0  0
    5.9429   -1.3123   27.4981 C   0  0  0  0  0  0  0  0  0  0  0  0
    7.9852    2.0843   22.9884 C   0  0  0  0  0  0  0  0  0  0  0  0
    6.6654    2.7251   22.6764 Cl  0  0  0  0  0  0  0  0  0  0  0  0
   11.1652    2.6819   21.8857 C   0  0  0  0  0  0  0  0  0  0  0  0
   10.7059    6.3244   23.3927 C   0  0  0  0  0  0  0  0  0  0  0  0
   10.3823    4.9715   22.8315 N   0  0  0  0  0  0  0  0  0  0  0  0
   11.4889    4.0348   22.4468 C   0  0  0  0  0  0  0  0  0  0  0  0
   12.9192    4.4511   22.6232 O   0  0  0  0  0  0  0  0  0  0  0  0
    9.4435    4.6983   22.7157 H   0  0  0  0  0  0  0  0  0  0  0  0
 31 32  1  0  0  0
 32 33  1  0  0  0
 33 34  2  0  0  0
 33 30  1  0  0  0
 30  1  1  0  0  0
  1  2  1  0  0  0
  3  2  1  0  0  0
  3  4  1  0  0  0
  4  5  2  0  0  0
  4  6  1  0  0  0
  6 18  1  0  0  0
 18 19  2  0  0  0
 19 20  1  0  0  0
 20 21  2  0  0  0
 21 22  1  0  0  0
 22 23  2  0  0  0
 23 24  1  0  0  0
 24 25  2  0  0  0
 25 26  1  0  0  0
 26 27  2  0  0  0
  6  7  1  0  0  0
  7  8  1  0  0  0
  8 28  1  0  0  0
 28 29  1  0  0  0
  3  9  1  0  0  0
  9 10  2  0  0  0
 10 11  1  0  0  0
 11 12  1  0  0  0
 11 13  2  0  0  0
 13 14  1  0  0  0
 14 15  2  0  0  0
 15 16  1  0  0  0
 16 17  2  0  0  0
 16  1  1  0  0  0
  8  3  1  0  0  0
 15  9  1  0  0  0
 27 18  1  0  0  0
 27 22  1  0  0  0
 32 35  1  0  0  0
M  END
> <minimizedAffinity>
-7.67384

> <CNNscore>
0.4444805682

> <CNNaffinity>
6.7026343346

> <CNN_VS>
2.9791908264

> <CNNaffinity_variance>
0.1760693938

$$$$



 35 39  0  0  0  0  0  0  0  0999 V2000
    8.5556    4.5099   23.3370 N   0  0  0  0  0  0  0  0  0  0  0  0
    7.7809    3.2805   23.7091 C   0  0  0  0  0  0  0  0  0  0  0  0
    8.4484    1.9374   23.6850 C   0  0  0  0  0  0  0  0  0  0  0  0
    8.9785    0.5344   23.7074 C   0  0  0  0  0  0  0  0  0  0  0  0
   10.0065   -0.0758   23.4903 O   0  0  0  0  0  0  0  0  0  0  0  0
    7.8653   -0.3749   24.1363 N   0  0  0  0  0  0  0  0  0  0  0  0
    6.6472    0.4661   24.3789 C   0  0  0  0  0  0  0  0  0  0  0  0
    7.0076    1.8952   24.1000 C   0  0  0  0  0  0  0  0  0  0  0  0
    9.8907    1.8237   23.2888 C   0  0  0  0  0  0  0  0  0  0  0  0
   10.5582    0.4807   23.2647 C   0  0  0  0  0  0  0  0  0  0  0  0
   12.0005    0.3670   22.8686 C   0  0  0  0  0  0  0  0  0  0  0  0
   12.6681   -0.9761   22.8445 Cl  0  0  0  0  0  0  0  0  0  0  0  0
   12.7752    1.5964   22.4965 C   0  0  0  0  0  0  0  0  0  0  0  0
   12.1077    2.9394   22.5206 C   0  0  0  0  0  0  0  0  0  0  0  0
   10.6654    3.0531   22.9167 C   0  0  0  0  0  0  0  0  0  0  0  0
    9.9978    4.3962   22.9408 C   0  0  0  0  0  0  0  0  0  0  0  0
   10.7726    5.6256   22.5688 O   0  0  0  0  0  0  0  0  0  0  0  0
    7.9545   -1.8639   24.2946 C   0  0  0  0  0  0  0  0  0  0  0  0
    6.9044   -2.7469   23.6884 C   0  0  0  0  0  0  0  0  0  0  0  0
    6.9936   -4.2358   23.8468 N   0  0  0  0  0  0  0  0  0  0  0  0
    8.1330   -4.8417   24.6114 C   0  0  0  0  0  0  0  0  0  0  0  0
    9.1831   -3.9587   25.2177 C   0  0  0  0  0  0  0  0  0  0  0  0
   10.3225   -4.5647   25.9824 C   0  0  0  0  0  0  0  0  0  0  0  0
   11.3726   -3.6815   26.5886 C   0  0  0  0  0  0  0  0  0  0  0  0
   11.2833   -2.1926   26.4302 C   0  0  0  0  0  0  0  0  0  0  0  0
   10.1440   -1.5867   25.6656 C   0  0  0  0  0  0  0  0  0  0  0  0
    9.0939   -2.4698   25.0593 C   0  0  0  0  0  0  0  0  0  0  0  0
    6.0885    3.0750   24.2158 C   0  0  0  0  0  0  0  0  0  0  0  0
    5.2970    3.2887   25.4718 Cl  0  0  0  0  0  0  0  0  0  0  0  0
    7.8880    5.8530   23.3611 C   0  0  0  0  0  0  0  0  0  0  0  0
    9.8197    7.8258   26.2118 C   0  0  0  0  0  0  0  0  0  0  0  0
    9.5382    6.8683   25.0919 N   0  0  0  0  0  0  0  0  0  0  0  0
    8.1695    6.8104   24.4809 C   0  0  0  0  0  0  0  0  0  0  0  0
    7.0823    7.7100   24.9898 O   0  0  0  0  0  0  0  0  0  0  0  0
   10.2517    6.2780   24.7580 H   0  0  0  0  0  0  0  0  0  0  0  0
 31 32  1  0  0  0
 32 33  1  0  0  0
 33 34  2  0  0  0
 33 30  1  0  0  0
 30  1  1  0  0  0
  1  2  1  0  0  0
  3  2  1  0  0  0
  3  4  1  0  0  0
  4  5  2  0  0  0
  4  6  1  0  0  0
  6 18  1  0  0  0
 18 19  2  0  0  0
 19 20  1  0  0  0
 20 21  2  0  0  0
 21 22  1  0  0  0
 22 23  2  0  0  0
 23 24  1  0  0  0
 24 25  2  0  0  0
 25 26  1  0  0  0
 26 27  2  0  0  0
  6  7  1  0  0  0
  7  8  1  0  0  0
  8 28  1  0  0  0
 28 29  1  0  0  0
  3  9  1  0  0  0
  9 10  2  0  0  0
 10 11  1  0  0  0
 11 12  1  0  0  0
 11 13  2  0  0  0
 13 14  1  0  0  0
 14 15  2  0  0  0
 15 16  1  0  0  0
 16 17  2  0  0  0
 16  1  1  0  0  0
  8  3  1  0  0  0
 15  9  1  0  0  0
 27 18  1  0  0  0
 27 22  1  0  0  0
 32 35  1  0  0  0
M  END
> <minimizedAffinity>
-7.36062

> <CNNscore>
0.4154887199

> <CNNaffinity>
6.5758271217

> <CNN_VS>
2.7321820259

> <CNNaffinity_variance>
0.2063762248

$$$$



 35 39  0  0  0  0  0  0  0  0999 V2000
   10.3758    0.6417   23.7233 N   0  0  0  0  0  0  0  0  0  0  0  0
    8.9922    0.2535   24.1531 C   0  0  0  0  0  0  0  0  0  0  0  0
    8.7888   -0.9418   25.0362 C   0  0  0  0  0  0  0  0  0  0  0  0
    8.4318   -2.1052   25.9131 C   0  0  0  0  0  0  0  0  0  0  0  0
    8.9658   -3.0174   26.5124 O   0  0  0  0  0  0  0  0  0  0  0  0
    6.9416   -2.1173   26.0834 N   0  0  0  0  0  0  0  0  0  0  0  0
    6.3775   -0.9612   25.3118 C   0  0  0  0  0  0  0  0  0  0  0  0
    7.5192   -0.2347   24.6646 C   0  0  0  0  0  0  0  0  0  0  0  0
    9.9692   -1.7488   25.4896 C   0  0  0  0  0  0  0  0  0  0  0  0
    9.7658   -2.9441   26.3727 C   0  0  0  0  0  0  0  0  0  0  0  0
   10.9461   -3.7511   26.8261 C   0  0  0  0  0  0  0  0  0  0  0  0
   10.7428   -4.9464   27.7093 Cl  0  0  0  0  0  0  0  0  0  0  0  0
   12.3298   -3.3628   26.3963 C   0  0  0  0  0  0  0  0  0  0  0  0
   12.5331   -2.1676   25.5131 C   0  0  0  0  0  0  0  0  0  0  0  0
   11.3528   -1.3606   25.0598 C   0  0  0  0  0  0  0  0  0  0  0  0
   11.5561   -0.1653   24.1766 C   0  0  0  0  0  0  0  0  0  0  0  0
   12.9398    0.2230   23.7468 O   0  0  0  0  0  0  0  0  0  0  0  0
    6.1537   -3.1109   26.8847 C   0  0  0  0  0  0  0  0  0  0  0  0
    6.0655   -2.9709   28.3756 C   0  0  0  0  0  0  0  0  0  0  0  0
    5.2777   -3.9645   29.1769 N   0  0  0  0  0  0  0  0  0  0  0  0
    4.5781   -5.0981   28.4873 C   0  0  0  0  0  0  0  0  0  0  0  0
    4.6663   -5.2381   26.9964 C   0  0  0  0  0  0  0  0  0  0  0  0
    3.9667   -6.3717   26.3068 C   0  0  0  0  0  0  0  0  0  0  0  0
    4.0550   -6.5116   24.8159 C   0  0  0  0  0  0  0  0  0  0  0  0
    4.8428   -5.5180   24.0147 C   0  0  0  0  0  0  0  0  0  0  0  0
    5.5424   -4.3844   24.7043 C   0  0  0  0  0  0  0  0  0  0  0  0
    5.4542   -4.2444   26.1951 C   0  0  0  0  0  0  0  0  0  0  0  0
    7.4102    0.9847   23.7979 C   0  0  0  0  0  0  0  0  0  0  0  0
    6.0611    1.4902   23.3806 Cl  0  0  0  0  0  0  0  0  0  0  0  0
   10.5791    1.8371   22.8401 C   0  0  0  0  0  0  0  0  0  0  0  0
    7.9578    4.8014   23.1419 C   0  0  0  0  0  0  0  0  0  0  0  0
    9.1099    3.8914   23.4493 N   0  0  0  0  0  0  0  0  0  0  0  0
    9.4270    2.7471   22.5328 C   0  0  0  0  0  0  0  0  0  0  0  0
    8.5920    2.5128   21.3088 O   0  0  0  0  0  0  0  0  0  0  0  0
    9.6580    4.0452   24.2525 H   0  0  0  0  0  0  0  0  0  0  0  0
 31 32  1  0  0  0
 32 33  1  0  0  0
 33 34  2  0  0  0
 33 30  1  0  0  0
 30  1  1  0  0  0
  1  2  1  0  0  0
  3  2  1  0  0  0
  3  4  1  0  0  0
  4  5  2  0  0  0
  4  6  1  0  0  0
  6 18  1  0  0  0
 18 19  2  0  0  0
 19 20  1  0  0  0
 20 21  2  0  0  0
 21 22  1  0  0  0
 22 23  2  0  0  0
 23 24  1  0  0  0
 24 25  2  0  0  0
 25 26  1  0  0  0
 26 27  2  0  0  0
  6  7  1  0  0  0
  7  8  1  0  0  0
  8 28  1  0  0  0
 28 29  1  0  0  0
  3  9  1  0  0  0
  9 10  2  0  0  0
 10 11  1  0  0  0
 11 12  1  0  0  0
 11 13  2  0  0  0
 13 14  1  0  0  0
 14 15  2  0  0  0
 15 16  1  0  0  0
 16 17  2  0  0  0
 16  1  1  0  0  0
  8  3  1  0  0  0
 15  9  1  0  0  0
 27 18  1  0  0  0
 27 22  1  0  0  0
 32 35  1  0  0  0
M  END
> <minimizedAffinity>
-7.80383

> <CNNscore>
0.3594942093

> <CNNaffinity>
6.4440140724

> <CNN_VS>
2.3165857792

> <CNNaffinity_variance>
0.2486162931

$$$$



 35 39  0  0  0  0  0  0  0  0999 V2000
    3.7812   -4.6834   26.1444 N   0  0  0  0  0  0  0  0  0  0  0  0
    5.0783   -4.8705   25.4146 C   0  0  0  0  0  0  0  0  0  0  0  0
    6.0250   -3.7173   25.2600 C   0  0  0  0  0  0  0  0  0  0  0  0
    7.0660   -2.6627   25.0274 C   0  0  0  0  0  0  0  0  0  0  0  0
    7.2710   -1.4888   25.2649 O   0  0  0  0  0  0  0  0  0  0  0  0
    8.1931   -3.2855   24.2582 N   0  0  0  0  0  0  0  0  0  0  0  0
    7.8488   -4.7251   24.0153 C   0  0  0  0  0  0  0  0  0  0  0  0
    6.5088   -4.9919   24.6344 C   0  0  0  0  0  0  0  0  0  0  0  0
    5.6747   -2.3770   25.8352 C   0  0  0  0  0  0  0  0  0  0  0  0
    6.6214   -1.2239   25.6806 C   0  0  0  0  0  0  0  0  0  0  0  0
    6.2711    0.1164   26.2559 C   0  0  0  0  0  0  0  0  0  0  0  0
    7.2179    1.2696   26.1013 Cl  0  0  0  0  0  0  0  0  0  0  0  0
    4.9741    0.3035   26.9858 C   0  0  0  0  0  0  0  0  0  0  0  0
    4.0274   -0.8496   27.1404 C   0  0  0  0  0  0  0  0  0  0  0  0
    4.3777   -2.1899   26.5651 C   0  0  0  0  0  0  0  0  0  0  0  0
    3.4309   -3.3431   26.7197 C   0  0  0  0  0  0  0  0  0  0  0  0
    2.1339   -3.1560   27.4496 O   0  0  0  0  0  0  0  0  0  0  0  0
    9.4448   -2.5907   23.8105 C   0  0  0  0  0  0  0  0  0  0  0  0
    9.4503   -1.8044   22.5331 C   0  0  0  0  0  0  0  0  0  0  0  0
   10.7020   -1.1096   22.0854 N   0  0  0  0  0  0  0  0  0  0  0  0
   11.9482   -1.2010   22.9151 C   0  0  0  0  0  0  0  0  0  0  0  0
   11.9428   -1.9873   24.1925 C   0  0  0  0  0  0  0  0  0  0  0  0
   13.1891   -2.0787   25.0223 C   0  0  0  0  0  0  0  0  0  0  0  0
   13.1836   -2.8650   26.2997 C   0  0  0  0  0  0  0  0  0  0  0  0
   11.9319   -3.5598   26.7474 C   0  0  0  0  0  0  0  0  0  0  0  0
   10.6856   -3.4684   25.9176 C   0  0  0  0  0  0  0  0  0  0  0  0
   10.6911   -2.6821   24.6402 C   0  0  0  0  0  0  0  0  0  0  0  0
    5.7805   -6.3033   24.6290 C   0  0  0  0  0  0  0  0  0  0  0  0
    6.4760   -7.5455   24.1568 Cl  0  0  0  0  0  0  0  0  0  0  0  0
    2.8345   -5.8366   26.2990 C   0  0  0  0  0  0  0  0  0  0  0  0
    4.0528   -7.5491   29.6655 C   0  0  0  0  0  0  0  0  0  0  0  0
    4.0688   -6.7575   28.3914 N   0  0  0  0  0  0  0  0  0  0  0  0
    2.8185   -6.6282   27.5731 C   0  0  0  0  0  0  0  0  0  0  0  0
    1.5520   -7.2904   28.0287 O   0  0  0  0  0  0  0  0  0  0  0  0
    4.9000   -6.3229   28.0924 H   0  0  0  0  0  0  0  0  0  0  0  0
 31 32  1  0  0  0
 32 33  1  0  0  0
 33 34  2  0  0  0
 33 30  1  0  0  0
 30  1  1  0  0  0
  1  2  1  0  0  0
  3  2  1  0  0  0
  3  4  1  0  0  0
  4  5  2  0  0  0
  4  6  1  0  0  0
  6 18  1  0  0  0
 18 19  2  0  0  0
 19 20  1  0  0  0
 20 21  2  0  0  0
 21 22  1  0  0  0
 22 23  2  0  0  0
 23 24  1  0  0  0
 24 25  2  0  0  0
 25 26  1  0  0  0
 26 27  2  0  0  0
  6  7  1  0  0  0
  7  8  1  0  0  0
  8 28  1  0  0  0
 28 29  1  0  0  0
  3  9  1  0  0  0
  9 10  2  0  0  0
 10 11  1  0  0  0
 11 12  1  0  0  0
 11 13  2  0  0  0
 13 14  1  0  0  0
 14 15  2  0  0  0
 15 16  1  0  0  0
 16 17  2  0  0  0
 16  1  1  0  0  0
  8  3  1  0  0  0
 15  9  1  0  0  0
 27 18  1  0  0  0
 27 22  1  0  0  0
 32 35  1  0  0  0
M  END
> <minimizedAffinity>
-7.22012

> <CNNscore>
0.3273610473

> <CNNaffinity>
6.4455504417

> <CNN_VS>
2.1100220680

> <CNNaffinity_variance>
0.0530669503

$$$$



 35 39  0  0  0  0  0  0  0  0999 V2000
    4.9439    1.4611   22.8529 N   0  0  0  0  0  0  0  0  0  0  0  0
    6.2784    0.7792   22.9180 C   0  0  0  0  0  0  0  0  0  0  0  0
    6.6193   -0.0917   24.0907 C   0  0  0  0  0  0  0  0  0  0  0  0
    7.0987   -0.9876   25.1940 C   0  0  0  0  0  0  0  0  0  0  0  0
    6.7188   -1.4437   26.2542 O   0  0  0  0  0  0  0  0  0  0  0  0
    8.4844   -1.4470   24.8491 N   0  0  0  0  0  0  0  0  0  0  0  0
    8.8613   -0.8349   23.5325 C   0  0  0  0  0  0  0  0  0  0  0  0
    7.7086    0.0026   23.0638 C   0  0  0  0  0  0  0  0  0  0  0  0
    5.6256   -0.2809   25.1983 C   0  0  0  0  0  0  0  0  0  0  0  0
    5.9664   -1.1518   26.3710 C   0  0  0  0  0  0  0  0  0  0  0  0
    4.9727   -1.3409   27.4786 C   0  0  0  0  0  0  0  0  0  0  0  0
    5.3135   -2.2119   28.6514 Cl  0  0  0  0  0  0  0  0  0  0  0  0
    3.6382   -0.6591   27.4135 C   0  0  0  0  0  0  0  0  0  0  0  0
    3.2974    0.2118   26.2408 C   0  0  0  0  0  0  0  0  0  0  0  0
    4.2911    0.4010   25.1332 C   0  0  0  0  0  0  0  0  0  0  0  0
    3.9503    1.2719   23.9605 C   0  0  0  0  0  0  0  0  0  0  0  0
    2.6158    1.9538   23.8954 O   0  0  0  0  0  0  0  0  0  0  0  0
    9.3424   -2.3583   25.6756 C   0  0  0  0  0  0  0  0  0  0  0  0
    8.7064   -3.3899   26.5597 C   0  0  0  0  0  0  0  0  0  0  0  0
    9.5645   -4.3012   27.3862 N   0  0  0  0  0  0  0  0  0  0  0  0
   11.0585   -4.1810   27.3287 C   0  0  0  0  0  0  0  0  0  0  0  0
   11.6945   -3.1495   26.4447 C   0  0  0  0  0  0  0  0  0  0  0  0
   13.1887   -3.0294   26.3872 C   0  0  0  0  0  0  0  0  0  0  0  0
   13.8246   -1.9978   25.5032 C   0  0  0  0  0  0  0  0  0  0  0  0
   12.9666   -1.0865   24.6766 C   0  0  0  0  0  0  0  0  0  0  0  0
   11.4725   -1.2066   24.7341 C   0  0  0  0  0  0  0  0  0  0  0  0
   10.8365   -2.2382   25.6181 C   0  0  0  0  0  0  0  0  0  0  0  0
    7.6547    0.7954   21.7916 C   0  0  0  0  0  0  0  0  0  0  0  0
    8.7056    1.8267   21.5054 Cl  0  0  0  0  0  0  0  0  0  0  0  0
    4.6031    2.3320   21.6801 C   0  0  0  0  0  0  0  0  0  0  0  0
    4.8122    0.7269   18.0566 C   0  0  0  0  0  0  0  0  0  0  0  0
    5.2260    1.3487   19.3574 N   0  0  0  0  0  0  0  0  0  0  0  0
    4.1893    1.7102   20.3793 C   0  0  0  0  0  0  0  0  0  0  0  0
    2.7385    1.4499   20.1004 O   0  0  0  0  0  0  0  0  0  0  0  0
    6.1782    1.5196   19.5404 H   0  0  0  0  0  0  0  0  0  0  0  0
 31 32  1  0  0  0
 32 33  1  0  0  0
 33 34  2  0  0  0
 33 30  1  0  0  0
 30  1  1  0  0  0
  1  2  1  0  0  0
  3  2  1  0  0  0
  3  4  1  0  0  0
  4  5  2  0  0  0
  4  6  1  0  0  0
  6 18  1  0  0  0
 18 19  2  0  0  0
 19 20  1  0  0  0
 20 21  2  0  0  0
 21 22  1  0  0  0
 22 23  2  0  0  0
 23 24  1  0  0  0
 24 25  2  0  0  0
 25 26  1  0  0  0
 26 27  2  0  0  0
  6  7  1  0  0  0
  7  8  1  0  0  0
  8 28  1  0  0  0
 28 29  1  0  0  0
  3  9  1  0  0  0
  9 10  2  0  0  0
 10 11  1  0  0  0
 11 12  1  0  0  0
 11 13  2  0  0  0
 13 14  1  0  0  0
 14 15  2  0  0  0
 15 16  1  0  0  0
 16 17  2  0  0  0
 16  1  1  0  0  0
  8  3  1  0  0  0
 15  9  1  0  0  0
 27 18  1  0  0  0
 27 22  1  0  0  0
 32 35  1  0  0  0
M  END
> <minimizedAffinity>
-7.00717

> <CNNscore>
0.3166323304

> <CNNaffinity>
6.3894190788

> <CNN_VS>
2.0230965614

> <CNNaffinity_variance>
0.1521432400

$$$$



 35 39  0  0  0  0  0  0  0  0999 V2000
   10.8749    1.6680   22.6451 N   0  0  0  0  0  0  0  0  0  0  0  0
    9.4976    1.2590   23.0761 C   0  0  0  0  0  0  0  0  0  0  0  0
    9.3100    0.0405   23.9304 C   0  0  0  0  0  0  0  0  0  0  0  0
    8.9684   -1.1472   24.7804 C   0  0  0  0  0  0  0  0  0  0  0  0
    9.5137   -2.0704   25.3522 O   0  0  0  0  0  0  0  0  0  0  0  0
    7.4797   -1.1744   24.9624 N   0  0  0  0  0  0  0  0  0  0  0  0
    6.9012   -0.0034   24.2247 C   0  0  0  0  0  0  0  0  0  0  0  0
    8.0324    0.7474   23.5869 C   0  0  0  0  0  0  0  0  0  0  0  0
   10.4997   -0.7692   24.3537 C   0  0  0  0  0  0  0  0  0  0  0  0
   10.3120   -1.9877   25.2080 C   0  0  0  0  0  0  0  0  0  0  0  0
   11.5017   -2.7973   25.6313 C   0  0  0  0  0  0  0  0  0  0  0  0
   11.3141   -4.0159   26.4857 Cl  0  0  0  0  0  0  0  0  0  0  0  0
   12.8790   -2.3883   25.2004 C   0  0  0  0  0  0  0  0  0  0  0  0
   13.0666   -1.1698   24.3461 C   0  0  0  0  0  0  0  0  0  0  0  0
   11.8770   -0.3602   23.9228 C   0  0  0  0  0  0  0  0  0  0  0  0
   12.0646    0.8584   23.0684 C   0  0  0  0  0  0  0  0  0  0  0  0
   13.4419    1.2674   22.6375 O   0  0  0  0  0  0  0  0  0  0  0  0
    6.7055   -2.1936   25.7446 C   0  0  0  0  0  0  0  0  0  0  0  0
    6.3014   -1.9042   27.1599 C   0  0  0  0  0  0  0  0  0  0  0  0
    5.5272   -2.9233   27.9421 N   0  0  0  0  0  0  0  0  0  0  0  0
    5.1571   -4.2319   27.3091 C   0  0  0  0  0  0  0  0  0  0  0  0
    5.5613   -4.5213   25.8938 C   0  0  0  0  0  0  0  0  0  0  0  0
    5.1912   -5.8299   25.2608 C   0  0  0  0  0  0  0  0  0  0  0  0
    5.5953   -6.1192   23.8455 C   0  0  0  0  0  0  0  0  0  0  0  0
    6.3695   -5.1000   23.0633 C   0  0  0  0  0  0  0  0  0  0  0  0
    6.7396   -3.7915   23.6963 C   0  0  0  0  0  0  0  0  0  0  0  0
    6.3355   -3.5021   25.1116 C   0  0  0  0  0  0  0  0  0  0  0  0
    7.9077    1.9874   22.7522 C   0  0  0  0  0  0  0  0  0  0  0  0
    6.6579    2.2367   21.9612 Cl  0  0  0  0  0  0  0  0  0  0  0  0
   11.0626    2.8866   21.7908 C   0  0  0  0  0  0  0  0  0  0  0  0
   10.8170    6.4846   23.4474 C   0  0  0  0  0  0  0  0  0  0  0  0
   10.4154    5.1830   22.8193 N   0  0  0  0  0  0  0  0  0  0  0  0
   11.4642    4.1883   22.4188 C   0  0  0  0  0  0  0  0  0  0  0  0
   12.9148    4.4952   22.6463 O   0  0  0  0  0  0  0  0  0  0  0  0
    9.4633    4.9815   22.6700 H   0  0  0  0  0  0  0  0  0  0  0  0
 31 32  1  0  0  0
 32 33  1  0  0  0
 33 34  2  0  0  0
 33 30  1  0  0  0
 30  1  1  0  0  0
  1  2  1  0  0  0
  3  2  1  0  0  0
  3  4  1  0  0  0
  4  5  2  0  0  0
  4  6  1  0  0  0
  6 18  1  0  0  0
 18 19  2  0  0  0
 19 20  1  0  0  0
 20 21  2  0  0  0
 21 22  1  0  0  0
 22 23  2  0  0  0
 23 24  1  0  0  0
 24 25  2  0  0  0
 25 26  1  0  0  0
 26 27  2  0  0  0
  6  7  1  0  0  0
  7  8  1  0  0  0
  8 28  1  0  0  0
 28 29  1  0  0  0
  3  9  1  0  0  0
  9 10  2  0  0  0
 10 11  1  0  0  0
 11 12  1  0  0  0
 11 13  2  0  0  0
 13 14  1  0  0  0
 14 15  2  0  0  0
 15 16  1  0  0  0
 16 17  2  0  0  0
 16  1  1  0  0  0
  8  3  1  0  0  0
 15  9  1  0  0  0
 27 18  1  0  0  0
 27 22  1  0  0  0
 32 35  1  0  0  0
M  END
> <minimizedAffinity>
-7.96653

> <CNNscore>
0.3005329072

> <CNNaffinity>
6.6846885681

> <CNN_VS>
2.0089688301

> <CNNaffinity_variance>
0.2256468236

$$$$



 35 39  0  0  0  0  0  0  0  0999 V2000
   10.4081    0.7494   23.2955 N   0  0  0  0  0  0  0  0  0  0  0  0
    9.0043    0.2959   23.5671 C   0  0  0  0  0  0  0  0  0  0  0  0
    8.7551   -0.8622   24.4873 C   0  0  0  0  0  0  0  0  0  0  0  0
    8.3528   -1.9987   25.3797 C   0  0  0  0  0  0  0  0  0  0  0  0
    8.8545   -2.8421   26.0963 O   0  0  0  0  0  0  0  0  0  0  0  0
    6.8563   -2.0978   25.3581 N   0  0  0  0  0  0  0  0  0  0  0  0
    6.3336   -1.0225   24.4523 C   0  0  0  0  0  0  0  0  0  0  0  0
    7.5071   -0.2588   23.9141 C   0  0  0  0  0  0  0  0  0  0  0  0
    9.9097   -1.5667   25.1359 C   0  0  0  0  0  0  0  0  0  0  0  0
    9.6605   -2.7247   26.0561 C   0  0  0  0  0  0  0  0  0  0  0  0
   10.8150   -3.4292   26.7047 C   0  0  0  0  0  0  0  0  0  0  0  0
   10.5658   -4.5873   27.6250 Cl  0  0  0  0  0  0  0  0  0  0  0  0
   12.2187   -2.9756   26.4331 C   0  0  0  0  0  0  0  0  0  0  0  0
   12.4680   -1.8176   25.5129 C   0  0  0  0  0  0  0  0  0  0  0  0
   11.3134   -1.1131   24.8643 C   0  0  0  0  0  0  0  0  0  0  0  0
   11.5626    0.0450   23.9441 C   0  0  0  0  0  0  0  0  0  0  0  0
   12.9664    0.4985   23.6725 O   0  0  0  0  0  0  0  0  0  0  0  0
    6.0279   -3.0968   26.1102 C   0  0  0  0  0  0  0  0  0  0  0  0
    5.6774   -4.4101   25.4757 C   0  0  0  0  0  0  0  0  0  0  0  0
    4.8490   -5.4091   26.2278 N   0  0  0  0  0  0  0  0  0  0  0  0
    4.3711   -5.0949   27.6145 C   0  0  0  0  0  0  0  0  0  0  0  0
    4.7215   -3.7816   28.2490 C   0  0  0  0  0  0  0  0  0  0  0  0
    4.2436   -3.4674   29.6357 C   0  0  0  0  0  0  0  0  0  0  0  0
    4.5940   -2.1542   30.2701 C   0  0  0  0  0  0  0  0  0  0  0  0
    5.4224   -1.1551   29.5180 C   0  0  0  0  0  0  0  0  0  0  0  0
    5.9004   -1.4694   28.1314 C   0  0  0  0  0  0  0  0  0  0  0  0
    5.5499   -2.7826   27.4969 C   0  0  0  0  0  0  0  0  0  0  0  0
    7.4438    0.9041   22.9688 C   0  0  0  0  0  0  0  0  0  0  0  0
    6.5782    0.8303   21.7460 Cl  0  0  0  0  0  0  0  0  0  0  0  0
   10.6573    1.9075   22.3752 C   0  0  0  0  0  0  0  0  0  0  0  0
    9.3707    5.5121   23.4249 C   0  0  0  0  0  0  0  0  0  0  0  0
    9.3809    4.1116   22.8877 N   0  0  0  0  0  0  0  0  0  0  0  0
   10.6471    3.3080   22.9124 C   0  0  0  0  0  0  0  0  0  0  0  0
   11.9034    3.9048   23.4744 O   0  0  0  0  0  0  0  0  0  0  0  0
    8.5564    3.7199   22.5189 H   0  0  0  0  0  0  0  0  0  0  0  0
 31 32  1  0  0  0
 32 33  1  0  0  0
 33 34  2  0  0  0
 33 30  1  0  0  0
 30  1  1  0  0  0
  1  2  1  0  0  0
  3  2  1  0  0  0
  3  4  1  0  0  0
  4  5  2  0  0  0
  4  6  1  0  0  0
  6 18  1  0  0  0
 18 19  2  0  0  0
 19 20  1  0  0  0
 20 21  2  0  0  0
 21 22  1  0  0  0
 22 23  2  0  0  0
 23 24  1  0  0  0
 24 25  2  0  0  0
 25 26  1  0  0  0
 26 27  2  0  0  0
  6  7  1  0  0  0
  7  8  1  0  0  0
  8 28  1  0  0  0
 28 29  1  0  0  0
  3  9  1  0  0  0
  9 10  2  0  0  0
 10 11  1  0  0  0
 11 12  1  0  0  0
 11 13  2  0  0  0
 13 14  1  0  0  0
 14 15  2  0  0  0
 15 16  1  0  0  0
 16 17  2  0  0  0
 16  1  1  0  0  0
  8  3  1  0  0  0
 15  9  1  0  0  0
 27 18  1  0  0  0
 27 22  1  0  0  0
 32 35  1  0  0  0
M  END
> <minimizedAffinity>
-7.43493

> <CNNscore>
0.2815622687

> <CNNaffinity>
6.4624166489

> <CNN_VS>
1.8195726871

> <CNNaffinity_variance>
0.2071897537

$$$$



 35 39  0  0  0  0  0  0  0  0999 V2000
   10.5543   -0.2412   24.2514 N   0  0  0  0  0  0  0  0  0  0  0  0
    9.9455   -1.4809   24.8367 C   0  0  0  0  0  0  0  0  0  0  0  0
    8.4567   -1.5871   24.9852 C   0  0  0  0  0  0  0  0  0  0  0  0
    6.9924   -1.8360   25.1946 C   0  0  0  0  0  0  0  0  0  0  0  0
    5.9216   -1.2867   25.0270 O   0  0  0  0  0  0  0  0  0  0  0  0
    6.8360   -3.1982   25.8027 N   0  0  0  0  0  0  0  0  0  0  0  0
    8.2037   -3.7913   25.9692 C   0  0  0  0  0  0  0  0  0  0  0  0
    9.2053   -2.7956   25.4639 C   0  0  0  0  0  0  0  0  0  0  0  0
    7.5766   -0.4536   24.5484 C   0  0  0  0  0  0  0  0  0  0  0  0
    6.0878   -0.5598   24.6968 C   0  0  0  0  0  0  0  0  0  0  0  0
    5.2078    0.5736   24.2600 C   0  0  0  0  0  0  0  0  0  0  0  0
    3.7189    0.4674   24.4085 Cl  0  0  0  0  0  0  0  0  0  0  0  0
    5.8166    1.8133   23.6747 C   0  0  0  0  0  0  0  0  0  0  0  0
    7.3054    1.9195   23.5262 C   0  0  0  0  0  0  0  0  0  0  0  0
    8.1854    0.7860   23.9630 C   0  0  0  0  0  0  0  0  0  0  0  0
    9.6743    0.8922   23.8146 C   0  0  0  0  0  0  0  0  0  0  0  0
   10.2832    2.1319   23.2292 O   0  0  0  0  0  0  0  0  0  0  0  0
    5.5395   -3.8525   26.1784 C   0  0  0  0  0  0  0  0  0  0  0  0
    4.7495   -4.5997   25.1452 C   0  0  0  0  0  0  0  0  0  0  0  0
    3.4530   -5.2540   25.5208 N   0  0  0  0  0  0  0  0  0  0  0  0
    2.9466   -5.1610   26.9297 C   0  0  0  0  0  0  0  0  0  0  0  0
    3.7367   -4.4138   27.9629 C   0  0  0  0  0  0  0  0  0  0  0  0
    3.2302   -4.3208   29.3718 C   0  0  0  0  0  0  0  0  0  0  0  0
    4.0203   -3.5735   30.4049 C   0  0  0  0  0  0  0  0  0  0  0  0
    5.3168   -2.9192   30.0292 C   0  0  0  0  0  0  0  0  0  0  0  0
    5.8232   -3.0122   28.6204 C   0  0  0  0  0  0  0  0  0  0  0  0
    5.0331   -3.7595   27.5872 C   0  0  0  0  0  0  0  0  0  0  0  0
   10.6942   -2.9766   25.4414 C   0  0  0  0  0  0  0  0  0  0  0  0
   11.3100   -4.2024   26.0481 Cl  0  0  0  0  0  0  0  0  0  0  0  0
   12.0433   -0.1351   24.1029 C   0  0  0  0  0  0  0  0  0  0  0  0
   14.1978   -2.4654   26.4857 C   0  0  0  0  0  0  0  0  0  0  0  0
   13.3156   -1.3464   26.0170 N   0  0  0  0  0  0  0  0  0  0  0  0
   12.9254   -1.2541   24.5716 C   0  0  0  0  0  0  0  0  0  0  0  0
   13.4173   -2.2808   23.5949 O   0  0  0  0  0  0  0  0  0  0  0  0
   12.9928   -0.6725   26.6580 H   0  0  0  0  0  0  0  0  0  0  0  0
 31 32  1  0  0  0
 32 33  1  0  0  0
 33 34  2  0  0  0
 33 30  1  0  0  0
 30  1  1  0  0  0
  1  2  1  0  0  0
  3  2  1  0  0  0
  3  4  1  0  0  0
  4  5  2  0  0  0
  4  6  1  0  0  0
  6 18  1  0  0  0
 18 19  2  0  0  0
 19 20  1  0  0  0
 20 21  2  0  0  0
 21 22  1  0  0  0
 22 23  2  0  0  0
 23 24  1  0  0  0
 24 25  2  0  0  0
 25 26  1  0  0  0
 26 27  2  0  0  0
  6  7  1  0  0  0
  7  8  1  0  0  0
  8 28  1  0  0  0
 28 29  1  0  0  0
  3  9  1  0  0  0
  9 10  2  0  0  0
 10 11  1  0  0  0
 11 12  1  0  0  0
 11 13  2  0  0  0
 13 14  1  0  0  0
 14 15  2  0  0  0
 15 16  1  0  0  0
 16 17  2  0  0  0
 16  1  1  0  0  0
  8  3  1  0  0  0
 15  9  1  0  0  0
 27 18  1  0  0  0
 27 22  1  0  0  0
 32 35  1  0  0  0
M  END
> <minimizedAffinity>
-6.89463

> <CNNscore>
0.2623144984

> <CNNaffinity>
6.4367294312

> <CNN_VS>
1.6884474754

> <CNNaffinity_variance>
0.3942027688

$$$$
