


 39 44  0  0  0  0  0  0  0  0999 V2000
    5.7224    3.4658   22.6775 N   0  0  0  0  0  0  0  0  0  0  0  0
    6.5366    2.2074   22.6188 C   0  0  0  0  0  0  0  0  0  0  0  0
    6.9278    1.5074   23.8864 C   0  0  0  0  0  0  0  0  0  0  0  0
    7.3915    0.7015   25.0634 C   0  0  0  0  0  0  0  0  0  0  0  0
    7.3305    0.7064   26.2770 O   0  0  0  0  0  0  0  0  0  0  0  0
    8.1716   -0.4700   24.5448 N   0  0  0  0  0  0  0  0  0  0  0  0
    8.1901   -0.3882   23.0472 C   0  0  0  0  0  0  0  0  0  0  0  0
    7.4213    0.8339   22.6402 C   0  0  0  0  0  0  0  0  0  0  0  0
    6.5046    2.0657   25.2128 C   0  0  0  0  0  0  0  0  0  0  0  0
    6.8958    1.3656   26.4804 C   0  0  0  0  0  0  0  0  0  0  0  0
    6.4726    1.9239   27.8067 C   0  0  0  0  0  0  0  0  0  0  0  0
    6.8638    1.2238   29.0744 Cl  0  0  0  0  0  0  0  0  0  0  0  0
    5.6584    3.1823   27.8655 C   0  0  0  0  0  0  0  0  0  0  0  0
    5.2672    3.8823   26.5979 C   0  0  0  0  0  0  0  0  0  0  0  0
    5.6904    3.3240   25.2715 C   0  0  0  0  0  0  0  0  0  0  0  0
    5.2992    4.0241   24.0038 C   0  0  0  0  0  0  0  0  0  0  0  0
    4.4849    5.2825   24.0626 O   0  0  0  0  0  0  0  0  0  0  0  0
    8.8195   -1.5362   25.3776 C   0  0  0  0  0  0  0  0  0  0  0  0
    7.9729   -2.4768   26.1830 C   0  0  0  0  0  0  0  0  0  0  0  0
    8.6208   -3.5429   27.0158 N   0  0  0  0  0  0  0  0  0  0  0  0
   10.1153   -3.6685   27.0432 C   0  0  0  0  0  0  0  0  0  0  0  0
   10.9618   -2.7279   26.2378 C   0  0  0  0  0  0  0  0  0  0  0  0
   12.4564   -2.8534   26.2653 C   0  0  0  0  0  0  0  0  0  0  0  0
   13.3029   -1.9128   25.4599 C   0  0  0  0  0  0  0  0  0  0  0  0
   12.6550   -0.8467   24.6271 C   0  0  0  0  0  0  0  0  0  0  0  0
   11.1605   -0.7211   24.5997 C   0  0  0  0  0  0  0  0  0  0  0  0
   10.3139   -1.6617   25.4050 C   0  0  0  0  0  0  0  0  0  0  0  0
    5.3312    4.1659   21.4098 C   0  0  0  0  0  0  0  0  0  0  0  0
    2.8471    2.2384   18.9883 C   0  0  0  0  0  0  0  0  0  0  0  0
    4.1019    2.6356   19.7078 N   0  0  0  0  0  0  0  0  0  0  0  0
    4.0764    3.7688   20.6902 C   0  0  0  0  0  0  0  0  0  0  0  0
    2.7961    4.5050   20.9531 O   0  0  0  0  0  0  0  0  0  0  0  0
    4.9421    2.1524   19.5353 H   0  0  0  0  0  0  0  0  0  0  0  0
    7.1873    1.3006   21.2340 C   0  0  0  0  0  0  0  0  0  0  0  0
    6.5375    0.3859   20.2386 N   0  0  0  0  0  0  0  0  0  0  0  0
    5.7360   -0.8405   20.5602 N   0  0  0  0  0  0  0  0  0  0  0  0
    5.2782   -1.4474   19.2671 C   0  0  0  0  0  0  0  0  0  0  0  0
    5.7968   -0.5960   18.1463 N   0  0  0  0  0  0  0  0  0  0  0  0
    6.5750    0.5370   18.7467 N   0  0  0  0  0  0  0  0  0  0  0  0
 29 30  1  0  0  0
 30 31  1  0  0  0
 31 32  2  0  0  0
 31 28  1  0  0  0
 28  1  1  0  0  0
  1  2  1  0  0  0
  3  2  1  0  0  0
  3  4  1  0  0  0
  4  5  2  0  0  0
  4  6  1  0  0  0
  6 18  1  0  0  0
 18 19  2  0  0  0
 19 20  1  0  0  0
 20 21  2  0  0  0
 21 22  1  0  0  0
 22 23  2  0  0  0
 23 24  1  0  0  0
 24 25  2  0  0  0
 25 26  1  0  0  0
 26 27  2  0  0  0
  6  7  1  0  0  0
  7  8  1  0  0  0
  8 34  1  0  0  0
 34 35  1  0  0  0
 35 36  1  0  0  0
 36 37  2  0  0  0
 37 38  1  0  0  0
 38 39  2  0  0  0
  3  9  1  0  0  0
  9 10  2  0  0  0
 10 11  1  0  0  0
 11 12  1  0  0  0
 11 13  2  0  0  0
 13 14  1  0  0  0
 14 15  2  0  0  0
 15 16  1  0  0  0
 16 17  2  0  0  0
 16  1  1  0  0  0
  8  3  1  0  0  0
 39 35  1  0  0  0
 15  9  1  0  0  0
 27 18  1  0  0  0
 27 22  1  0  0  0
 30 33  1  0  0  0
M  END
> <minimizedAffinity>
-8.14766

> <CNNscore>
0.5163931847

> <CNNaffinity>
6.7185888290

> <CNN_VS>
3.4694335461

> <CNNaffinity_variance>
0.0555067472

$$$$



 39 44  0  0  0  0  0  0  0  0999 V2000
    6.7038   -3.3735   22.7821 N   0  0  0  0  0  0  0  0  0  0  0  0
    7.0293   -2.0012   22.2712 C   0  0  0  0  0  0  0  0  0  0  0  0
    8.2195   -1.2635   22.8089 C   0  0  0  0  0  0  0  0  0  0  0  0
    9.3707   -0.4087   23.2494 C   0  0  0  0  0  0  0  0  0  0  0  0
   10.3111   -0.4381   24.0183 O   0  0  0  0  0  0  0  0  0  0  0  0
    9.3136    0.8780   22.4806 N   0  0  0  0  0  0  0  0  0  0  0  0
    8.1271    0.8184   21.5648 C   0  0  0  0  0  0  0  0  0  0  0  0
    7.4509   -0.5051   21.7677 C   0  0  0  0  0  0  0  0  0  0  0  0
    9.0844   -1.8981   23.8574 C   0  0  0  0  0  0  0  0  0  0  0  0
   10.2746   -1.1604   24.3951 C   0  0  0  0  0  0  0  0  0  0  0  0
   11.1394   -1.7949   25.4436 C   0  0  0  0  0  0  0  0  0  0  0  0
   12.3297   -1.0572   25.9813 Cl  0  0  0  0  0  0  0  0  0  0  0  0
   10.8139   -3.1672   25.9545 C   0  0  0  0  0  0  0  0  0  0  0  0
    9.6237   -3.9049   25.4168 C   0  0  0  0  0  0  0  0  0  0  0  0
    8.7589   -3.2703   24.3683 C   0  0  0  0  0  0  0  0  0  0  0  0
    7.5686   -4.0080   23.8306 C   0  0  0  0  0  0  0  0  0  0  0  0
    7.2432   -5.3803   24.3415 O   0  0  0  0  0  0  0  0  0  0  0  0
   10.2743    2.0232   22.6056 C   0  0  0  0  0  0  0  0  0  0  0  0
   11.7486    1.7837   22.4681 C   0  0  0  0  0  0  0  0  0  0  0  0
   12.7093    2.9289   22.5931 N   0  0  0  0  0  0  0  0  0  0  0  0
   12.1957    4.3135   22.8556 C   0  0  0  0  0  0  0  0  0  0  0  0
   10.7213    4.5529   22.9931 C   0  0  0  0  0  0  0  0  0  0  0  0
   10.2076    5.9377   23.2556 C   0  0  0  0  0  0  0  0  0  0  0  0
    8.7332    6.1770   23.3931 C   0  0  0  0  0  0  0  0  0  0  0  0
    7.7725    5.0318   23.2681 C   0  0  0  0  0  0  0  0  0  0  0  0
    8.2862    3.6472   23.0056 C   0  0  0  0  0  0  0  0  0  0  0  0
    9.7606    3.4078   22.8681 C   0  0  0  0  0  0  0  0  0  0  0  0
    5.5135   -4.1112   22.2444 C   0  0  0  0  0  0  0  0  0  0  0  0
    4.0693   -7.0483   24.4888 C   0  0  0  0  0  0  0  0  0  0  0  0
    4.3848   -5.6691   23.9904 N   0  0  0  0  0  0  0  0  0  0  0  0
    5.1980   -5.4903   22.7428 C   0  0  0  0  0  0  0  0  0  0  0  0
    5.6957   -6.6907   21.9934 O   0  0  0  0  0  0  0  0  0  0  0  0
    4.0581   -4.8813   24.4822 H   0  0  0  0  0  0  0  0  0  0  0  0
    6.2219   -0.9858   21.0546 C   0  0  0  0  0  0  0  0  0  0  0  0
    5.7630   -0.2971   19.8036 N   0  0  0  0  0  0  0  0  0  0  0  0
    4.6063    0.6515   19.6930 N   0  0  0  0  0  0  0  0  0  0  0  0
    4.5086    1.0988   18.2646 C   0  0  0  0  0  0  0  0  0  0  0  0
    5.6049    0.4267   17.4924 N   0  0  0  0  0  0  0  0  0  0  0  0
    6.3801   -0.4360   18.4435 N   0  0  0  0  0  0  0  0  0  0  0  0
 29 30  1  0  0  0
 30 31  1  0  0  0
 31 32  2  0  0  0
 31 28  1  0  0  0
 28  1  1  0  0  0
  1  2  1  0  0  0
  3  2  1  0  0  0
  3  4  1  0  0  0
  4  5  2  0  0  0
  4  6  1  0  0  0
  6 18  1  0  0  0
 18 19  2  0  0  0
 19 20  1  0  0  0
 20 21  2  0  0  0
 21 22  1  0  0  0
 22 23  2  0  0  0
 23 24  1  0  0  0
 24 25  2  0  0  0
 25 26  1  0  0  0
 26 27  2  0  0  0
  6  7  1  0  0  0
  7  8  1  0  0  0
  8 34  1  0  0  0
 34 35  1  0  0  0
 35 36  1  0  0  0
 36 37  2  0  0  0
 37 38  1  0  0  0
 38 39  2  0  0  0
  3  9  1  0  0  0
  9 10  2  0  0  0
 10 11  1  0  0  0
 11 12  1  0  0  0
 11 13  2  0  0  0
 13 14  1  0  0  0
 14 15  2  0  0  0
 15 16  1  0  0  0
 16 17  2  0  0  0
 16  1  1  0  0  0
  8  3  1  0  0  0
 39 35  1  0  0  0
 15  9  1  0  0  0
 27 18  1  0  0  0
 27 22  1  0  0  0
 30 33  1  0  0  0
M  END
> <minimizedAffinity>
-9.21641

> <CNNscore>
0.3994778693

> <CNNaffinity>
6.9358444214

> <CNN_VS>
2.7707164288

> <CNNaffinity_variance>
0.2562660873

$$$$



 39 44  0  0  0  0  0  0  0  0999 V2000
    9.4632    0.7605   23.0442 N   0  0  0  0  0  0  0  0  0  0  0  0
    8.2934   -0.1752   22.9656 C   0  0  0  0  0  0  0  0  0  0  0  0
    8.3345   -1.4895   23.6872 C   0  0  0  0  0  0  0  0  0  0  0  0
    8.2318   -2.8303   24.3519 C   0  0  0  0  0  0  0  0  0  0  0  0
    8.8819   -3.5673   25.0663 O   0  0  0  0  0  0  0  0  0  0  0  0
    6.8959   -3.4182   24.0056 N   0  0  0  0  0  0  0  0  0  0  0  0
    6.1730   -2.4407   23.1269 C   0  0  0  0  0  0  0  0  0  0  0  0
    7.0622   -1.2488   22.9302 C   0  0  0  0  0  0  0  0  0  0  0  0
    9.5455   -1.8682   24.4875 C   0  0  0  0  0  0  0  0  0  0  0  0
    9.5866   -3.1826   25.2091 C   0  0  0  0  0  0  0  0  0  0  0  0
   10.7974   -3.5612   26.0094 C   0  0  0  0  0  0  0  0  0  0  0  0
   10.8386   -4.8756   26.7311 Cl  0  0  0  0  0  0  0  0  0  0  0  0
   11.9672   -2.6255   26.0879 C   0  0  0  0  0  0  0  0  0  0  0  0
   11.9261   -1.3112   25.3663 C   0  0  0  0  0  0  0  0  0  0  0  0
   10.7152   -0.9325   24.5661 C   0  0  0  0  0  0  0  0  0  0  0  0
   10.6740    0.3819   23.8444 C   0  0  0  0  0  0  0  0  0  0  0  0
   11.8438    1.3176   23.9230 O   0  0  0  0  0  0  0  0  0  0  0  0
    6.3745   -4.7497   24.4585 C   0  0  0  0  0  0  0  0  0  0  0  0
    6.9141   -6.0118   23.8534 C   0  0  0  0  0  0  0  0  0  0  0  0
    6.3926   -7.3433   24.3063 N   0  0  0  0  0  0  0  0  0  0  0  0
    5.3316   -7.4128   25.3643 C   0  0  0  0  0  0  0  0  0  0  0  0
    4.7920   -6.1507   25.9694 C   0  0  0  0  0  0  0  0  0  0  0  0
    3.7310   -6.2202   27.0275 C   0  0  0  0  0  0  0  0  0  0  0  0
    3.1915   -4.9582   27.6325 C   0  0  0  0  0  0  0  0  0  0  0  0
    3.7129   -3.6266   27.1796 C   0  0  0  0  0  0  0  0  0  0  0  0
    4.7739   -3.5571   26.1216 C   0  0  0  0  0  0  0  0  0  0  0  0
    5.3135   -4.8192   25.5165 C   0  0  0  0  0  0  0  0  0  0  0  0
    9.4220    2.0749   22.3225 C   0  0  0  0  0  0  0  0  0  0  0  0
   11.4005    5.3932   23.2302 C   0  0  0  0  0  0  0  0  0  0  0  0
   10.2774    4.4124   23.0669 N   0  0  0  0  0  0  0  0  0  0  0  0
   10.5451    3.0557   22.4858 C   0  0  0  0  0  0  0  0  0  0  0  0
   11.9359    2.6797   22.0681 O   0  0  0  0  0  0  0  0  0  0  0  0
    9.3646    4.6591   23.3410 H   0  0  0  0  0  0  0  0  0  0  0  0
    6.7361   -0.0300   22.1188 C   0  0  0  0  0  0  0  0  0  0  0  0
    6.4649   -0.1579   20.6491 N   0  0  0  0  0  0  0  0  0  0  0  0
    5.5366   -1.1454   20.0066 N   0  0  0  0  0  0  0  0  0  0  0  0
    5.5723   -0.9186   18.5243 C   0  0  0  0  0  0  0  0  0  0  0  0
    6.5227    0.2091   18.2507 N   0  0  0  0  0  0  0  0  0  0  0  0
    7.0744    0.6792   19.5639 N   0  0  0  0  0  0  0  0  0  0  0  0
 29 30  1  0  0  0
 30 31  1  0  0  0
 31 32  2  0  0  0
 31 28  1  0  0  0
 28  1  1  0  0  0
  1  2  1  0  0  0
  3  2  1  0  0  0
  3  4  1  0  0  0
  4  5  2  0  0  0
  4  6  1  0  0  0
  6 18  1  0  0  0
 18 19  2  0  0  0
 19 20  1  0  0  0
 20 21  2  0  0  0
 21 22  1  0  0  0
 22 23  2  0  0  0
 23 24  1  0  0  0
 24 25  2  0  0  0
 25 26  1  0  0  0
 26 27  2  0  0  0
  6  7  1  0  0  0
  7  8  1  0  0  0
  8 34  1  0  0  0
 34 35  1  0  0  0
 35 36  1  0  0  0
 36 37  2  0  0  0
 37 38  1  0  0  0
 38 39  2  0  0  0
  3  9  1  0  0  0
  9 10  2  0  0  0
 10 11  1  0  0  0
 11 12  1  0  0  0
 11 13  2  0  0  0
 13 14  1  0  0  0
 14 15  2  0  0  0
 15 16  1  0  0  0
 16 17  2  0  0  0
 16  1  1  0  0  0
  8  3  1  0  0  0
 39 35  1  0  0  0
 15  9  1  0  0  0
 27 18  1  0  0  0
 27 22  1  0  0  0
 30 33  1  0  0  0
M  END
> <minimizedAffinity>
-9.24419

> <CNNscore>
0.3823881149

> <CNNaffinity>
7.0260772705

> <CNN_VS>
2.6866884232

> <CNNaffinity_variance>
0.1746996790

$$$$



 39 44  0  0  0  0  0  0  0  0999 V2000
    9.3839    0.8183   22.9589 N   0  0  0  0  0  0  0  0  0  0  0  0
    8.2256   -0.1337   22.9142 C   0  0  0  0  0  0  0  0  0  0  0  0
    8.3056   -1.4466   23.6352 C   0  0  0  0  0  0  0  0  0  0  0  0
    8.2406   -2.7880   24.3033 C   0  0  0  0  0  0  0  0  0  0  0  0
    8.9211   -3.5152   24.9994 O   0  0  0  0  0  0  0  0  0  0  0  0
    6.9038   -3.3949   23.9956 N   0  0  0  0  0  0  0  0  0  0  0  0
    6.1426   -2.4285   23.1372 C   0  0  0  0  0  0  0  0  0  0  0  0
    7.0090   -1.2244   22.9145 C   0  0  0  0  0  0  0  0  0  0  0  0
    9.5440   -1.8075   24.4009 C   0  0  0  0  0  0  0  0  0  0  0  0
    9.6241   -3.1204   25.1219 C   0  0  0  0  0  0  0  0  0  0  0  0
   10.8624   -3.4813   25.8875 C   0  0  0  0  0  0  0  0  0  0  0  0
   10.9425   -4.7943   26.6085 Cl  0  0  0  0  0  0  0  0  0  0  0  0
   12.0207   -2.5292   25.9322 C   0  0  0  0  0  0  0  0  0  0  0  0
   11.9406   -1.2163   25.2112 C   0  0  0  0  0  0  0  0  0  0  0  0
   10.7023   -0.8555   24.4456 C   0  0  0  0  0  0  0  0  0  0  0  0
   10.6222    0.4575   23.7246 C   0  0  0  0  0  0  0  0  0  0  0  0
   11.7805    1.4095   23.7693 O   0  0  0  0  0  0  0  0  0  0  0  0
    6.4142   -4.7331   24.4639 C   0  0  0  0  0  0  0  0  0  0  0  0
    6.9361   -5.9874   23.8279 C   0  0  0  0  0  0  0  0  0  0  0  0
    6.4465   -7.3256   24.2963 N   0  0  0  0  0  0  0  0  0  0  0  0
    5.4349   -7.4096   25.4007 C   0  0  0  0  0  0  0  0  0  0  0  0
    4.9130   -6.1553   26.0367 C   0  0  0  0  0  0  0  0  0  0  0  0
    3.9014   -6.2394   27.1411 C   0  0  0  0  0  0  0  0  0  0  0  0
    3.3795   -4.9851   27.7770 C   0  0  0  0  0  0  0  0  0  0  0  0
    3.8691   -3.6469   27.3087 C   0  0  0  0  0  0  0  0  0  0  0  0
    4.8807   -3.5629   26.2043 C   0  0  0  0  0  0  0  0  0  0  0  0
    5.4026   -4.8171   25.5683 C   0  0  0  0  0  0  0  0  0  0  0  0
    9.3038    2.1313   22.2379 C   0  0  0  0  0  0  0  0  0  0  0  0
    7.7139    5.3018   24.0183 C   0  0  0  0  0  0  0  0  0  0  0  0
    8.7153    4.2706   23.5895 N   0  0  0  0  0  0  0  0  0  0  0  0
    8.3024    3.1625   22.6667 C   0  0  0  0  0  0  0  0  0  0  0  0
    6.8882    3.0856   22.1726 O   0  0  0  0  0  0  0  0  0  0  0  0
    9.6435    4.3210   23.9138 H   0  0  0  0  0  0  0  0  0  0  0  0
    6.6430   -0.0112   22.1120 C   0  0  0  0  0  0  0  0  0  0  0  0
    6.4160   -0.1299   20.6341 N   0  0  0  0  0  0  0  0  0  0  0  0
    5.3381   -0.9338   19.9694 N   0  0  0  0  0  0  0  0  0  0  0  0
    5.4830   -0.7664   18.4859 C   0  0  0  0  0  0  0  0  0  0  0  0
    6.6504    0.1410   18.2337 N   0  0  0  0  0  0  0  0  0  0  0  0
    7.2271    0.5344   19.5613 N   0  0  0  0  0  0  0  0  0  0  0  0
 29 30  1  0  0  0
 30 31  1  0  0  0
 31 32  2  0  0  0
 31 28  1  0  0  0
 28  1  1  0  0  0
  1  2  1  0  0  0
  3  2  1  0  0  0
  3  4  1  0  0  0
  4  5  2  0  0  0
  4  6  1  0  0  0
  6 18  1  0  0  0
 18 19  2  0  0  0
 19 20  1  0  0  0
 20 21  2  0  0  0
 21 22  1  0  0  0
 22 23  2  0  0  0
 23 24  1  0  0  0
 24 25  2  0  0  0
 25 26  1  0  0  0
 26 27  2  0  0  0
  6  7  1  0  0  0
  7  8  1  0  0  0
  8 34  1  0  0  0
 34 35  1  0  0  0
 35 36  1  0  0  0
 36 37  2  0  0  0
 37 38  1  0  0  0
 38 39  2  0  0  0
  3  9  1  0  0  0
  9 10  2  0  0  0
 10 11  1  0  0  0
 11 12  1  0  0  0
 11 13  2  0  0  0
 13 14  1  0  0  0
 14 15  2  0  0  0
 15 16  1  0  0  0
 16 17  2  0  0  0
 16  1  1  0  0  0
  8  3  1  0  0  0
 39 35  1  0  0  0
 15  9  1  0  0  0
 27 18  1  0  0  0
 27 22  1  0  0  0
 30 33  1  0  0  0
M  END
> <minimizedAffinity>
-9.01707

> <CNNscore>
0.3746556938

> <CNNaffinity>
7.0214591026

> <CNN_VS>
2.6306295395

> <CNNaffinity_variance>
0.1684445143

$$$$



 39 44  0  0  0  0  0  0  0  0999 V2000
    9.9385    0.6659   23.0980 N   0  0  0  0  0  0  0  0  0  0  0  0
    8.5872    0.0530   23.3174 C   0  0  0  0  0  0  0  0  0  0  0  0
    8.4347   -1.1129   24.2487 C   0  0  0  0  0  0  0  0  0  0  0  0
    8.1292   -2.2761   25.1452 C   0  0  0  0  0  0  0  0  0  0  0  0
    8.6937   -3.0434   25.8995 O   0  0  0  0  0  0  0  0  0  0  0  0
    6.6573   -2.5524   25.0607 N   0  0  0  0  0  0  0  0  0  0  0  0
    6.0531   -1.5600   24.1120 C   0  0  0  0  0  0  0  0  0  0  0  0
    7.1516   -0.6704   23.6101 C   0  0  0  0  0  0  0  0  0  0  0  0
    9.6337   -1.6659   24.9607 C   0  0  0  0  0  0  0  0  0  0  0  0
    9.4812   -2.8318   25.8920 C   0  0  0  0  0  0  0  0  0  0  0  0
   10.6801   -3.3847   26.6039 C   0  0  0  0  0  0  0  0  0  0  0  0
   10.5277   -4.5507   27.5353 Cl  0  0  0  0  0  0  0  0  0  0  0  0
   12.0315   -2.7718   26.3845 C   0  0  0  0  0  0  0  0  0  0  0  0
   12.1839   -1.6059   25.4532 C   0  0  0  0  0  0  0  0  0  0  0  0
   10.9850   -1.0529   24.7413 C   0  0  0  0  0  0  0  0  0  0  0  0
   11.1374    0.1130   23.8099 C   0  0  0  0  0  0  0  0  0  0  0  0
   12.4887    0.7260   23.5905 O   0  0  0  0  0  0  0  0  0  0  0  0
    5.9192   -3.6316   25.7959 C   0  0  0  0  0  0  0  0  0  0  0  0
    5.5549   -4.9049   25.0914 C   0  0  0  0  0  0  0  0  0  0  0  0
    4.8168   -5.9841   25.8266 N   0  0  0  0  0  0  0  0  0  0  0  0
    4.4430   -5.7901   27.2662 C   0  0  0  0  0  0  0  0  0  0  0  0
    4.8073   -4.5169   27.9707 C   0  0  0  0  0  0  0  0  0  0  0  0
    4.4335   -4.3229   29.4105 C   0  0  0  0  0  0  0  0  0  0  0  0
    4.7978   -3.0497   30.1149 C   0  0  0  0  0  0  0  0  0  0  0  0
    5.5359   -1.9705   29.3797 C   0  0  0  0  0  0  0  0  0  0  0  0
    5.9097   -2.1645   27.9400 C   0  0  0  0  0  0  0  0  0  0  0  0
    5.5454   -3.4377   27.2356 C   0  0  0  0  0  0  0  0  0  0  0  0
   10.0909    1.8319   22.1666 C   0  0  0  0  0  0  0  0  0  0  0  0
   10.6464    5.6843   22.9412 C   0  0  0  0  0  0  0  0  0  0  0  0
   10.8856    4.2900   22.4426 N   0  0  0  0  0  0  0  0  0  0  0  0
    9.8517    3.2263   22.6651 C   0  0  0  0  0  0  0  0  0  0  0  0
    8.5786    3.5569   23.3862 O   0  0  0  0  0  0  0  0  0  0  0  0
   11.7212    4.0730   21.9694 H   0  0  0  0  0  0  0  0  0  0  0  0
    6.9946    0.4628   22.6400 C   0  0  0  0  0  0  0  0  0  0  0  0
    6.6024    0.1849   21.2192 N   0  0  0  0  0  0  0  0  0  0  0  0
    5.6738   -0.8985   20.7567 N   0  0  0  0  0  0  0  0  0  0  0  0
    5.5674   -0.8114   19.2630 C   0  0  0  0  0  0  0  0  0  0  0  0
    6.4301    0.3259   18.8024 N   0  0  0  0  0  0  0  0  0  0  0  0
    7.0697    0.9416   20.0114 N   0  0  0  0  0  0  0  0  0  0  0  0
 29 30  1  0  0  0
 30 31  1  0  0  0
 31 32  2  0  0  0
 31 28  1  0  0  0
 28  1  1  0  0  0
  1  2  1  0  0  0
  3  2  1  0  0  0
  3  4  1  0  0  0
  4  5  2  0  0  0
  4  6  1  0  0  0
  6 18  1  0  0  0
 18 19  2  0  0  0
 19 20  1  0  0  0
 20 21  2  0  0  0
 21 22  1  0  0  0
 22 23  2  0  0  0
 23 24  1  0  0  0
 24 25  2  0  0  0
 25 26  1  0  0  0
 26 27  2  0  0  0
  6  7  1  0  0  0
  7  8  1  0  0  0
  8 34  1  0  0  0
 34 35  1  0  0  0
 35 36  1  0  0  0
 36 37  2  0  0  0
 37 38  1  0  0  0
 38 39  2  0  0  0
  3  9  1  0  0  0
  9 10  2  0  0  0
 10 11  1  0  0  0
 11 12  1  0  0  0
 11 13  2  0  0  0
 13 14  1  0  0  0
 14 15  2  0  0  0
 15 16  1  0  0  0
 16 17  2  0  0  0
 16  1  1  0  0  0
  8  3  1  0  0  0
 39 35  1  0  0  0
 15  9  1  0  0  0
 27 18  1  0  0  0
 27 22  1  0  0  0
 30 33  1  0  0  0
M  END
> <minimizedAffinity>
-8.62124

> <CNNscore>
0.3495588005

> <CNNaffinity>
6.8645248413

> <CNN_VS>
2.3995549679

> <CNNaffinity_variance>
0.1491556764

$$$$



 39 44  0  0  0  0  0  0  0  0999 V2000
   10.5471    1.1623   22.8924 N   0  0  0  0  0  0  0  0  0  0  0  0
    9.1469    0.7663   23.2565 C   0  0  0  0  0  0  0  0  0  0  0  0
    8.9121   -0.3628   24.2156 C   0  0  0  0  0  0  0  0  0  0  0  0
    8.5239   -1.4654   25.1556 C   0  0  0  0  0  0  0  0  0  0  0  0
    9.0372   -2.3119   25.8601 O   0  0  0  0  0  0  0  0  0  0  0  0
    7.0261   -1.5098   25.2246 N   0  0  0  0  0  0  0  0  0  0  0  0
    6.4887   -0.4346   24.3273 C   0  0  0  0  0  0  0  0  0  0  0  0
    7.6543    0.2743   23.7037 C   0  0  0  0  0  0  0  0  0  0  0  0
   10.0777   -1.0960   24.8107 C   0  0  0  0  0  0  0  0  0  0  0  0
    9.8430   -2.2251   25.7698 C   0  0  0  0  0  0  0  0  0  0  0  0
   11.0085   -2.9582   26.3649 C   0  0  0  0  0  0  0  0  0  0  0  0
   10.7738   -4.0874   27.3240 Cl  0  0  0  0  0  0  0  0  0  0  0  0
   12.4087   -2.5622   26.0008 C   0  0  0  0  0  0  0  0  0  0  0  0
   12.6434   -1.4331   25.0417 C   0  0  0  0  0  0  0  0  0  0  0  0
   11.4779   -0.7000   24.4466 C   0  0  0  0  0  0  0  0  0  0  0  0
   11.7126    0.4292   23.4875 C   0  0  0  0  0  0  0  0  0  0  0  0
   13.1128    0.8252   23.1234 O   0  0  0  0  0  0  0  0  0  0  0  0
    6.2092   -2.4622   26.0466 C   0  0  0  0  0  0  0  0  0  0  0  0
    5.9428   -3.8497   25.5428 C   0  0  0  0  0  0  0  0  0  0  0  0
    5.1259   -4.8021   26.3648 N   0  0  0  0  0  0  0  0  0  0  0  0
    4.5754   -4.3669   27.6905 C   0  0  0  0  0  0  0  0  0  0  0  0
    4.8419   -2.9793   28.1943 C   0  0  0  0  0  0  0  0  0  0  0  0
    4.2914   -2.5442   29.5201 C   0  0  0  0  0  0  0  0  0  0  0  0
    4.5578   -1.1566   30.0237 C   0  0  0  0  0  0  0  0  0  0  0  0
    5.3747   -0.2042   29.2018 C   0  0  0  0  0  0  0  0  0  0  0  0
    5.9252   -0.6394   27.8760 C   0  0  0  0  0  0  0  0  0  0  0  0
    5.6587   -2.0270   27.3723 C   0  0  0  0  0  0  0  0  0  0  0  0
   10.7817    2.2915   21.9333 C   0  0  0  0  0  0  0  0  0  0  0  0
   10.4398    5.9906   23.3295 C   0  0  0  0  0  0  0  0  0  0  0  0
   10.0728    4.6313   22.8123 N   0  0  0  0  0  0  0  0  0  0  0  0
   11.1488    3.6509   22.4505 C   0  0  0  0  0  0  0  0  0  0  0  0
   12.5918    4.0298   22.6057 O   0  0  0  0  0  0  0  0  0  0  0  0
    9.1257    4.3826   22.7104 H   0  0  0  0  0  0  0  0  0  0  0  0
    7.5759    1.4192   22.7378 C   0  0  0  0  0  0  0  0  0  0  0  0
    6.8312    1.2606   21.4455 N   0  0  0  0  0  0  0  0  0  0  0  0
    5.4152    1.6826   21.1864 N   0  0  0  0  0  0  0  0  0  0  0  0
    5.0805    1.3350   19.7662 C   0  0  0  0  0  0  0  0  0  0  0  0
    6.2895    0.6982   19.1475 N   0  0  0  0  0  0  0  0  0  0  0  0
    7.3714    0.6522   20.1854 N   0  0  0  0  0  0  0  0  0  0  0  0
 29 30  1  0  0  0
 30 31  1  0  0  0
 31 32  2  0  0  0
 31 28  1  0  0  0
 28  1  1  0  0  0
  1  2  1  0  0  0
  3  2  1  0  0  0
  3  4  1  0  0  0
  4  5  2  0  0  0
  4  6  1  0  0  0
  6 18  1  0  0  0
 18 19  2  0  0  0
 19 20  1  0  0  0
 20 21  2  0  0  0
 21 22  1  0  0  0
 22 23  2  0  0  0
 23 24  1  0  0  0
 24 25  2  0  0  0
 25 26  1  0  0  0
 26 27  2  0  0  0
  6  7  1  0  0  0
  7  8  1  0  0  0
  8 34  1  0  0  0
 34 35  1  0  0  0
 35 36  1  0  0  0
 36 37  2  0  0  0
 37 38  1  0  0  0
 38 39  2  0  0  0
  3  9  1  0  0  0
  9 10  2  0  0  0
 10 11  1  0  0  0
 11 12  1  0  0  0
 11 13  2  0  0  0
 13 14  1  0  0  0
 14 15  2  0  0  0
 15 16  1  0  0  0
 16 17  2  0  0  0
 16  1  1  0  0  0
  8  3  1  0  0  0
 39 35  1  0  0  0
 15  9  1  0  0  0
 27 18  1  0  0  0
 27 22  1  0  0  0
 30 33  1  0  0  0
M  END
> <minimizedAffinity>
-8.26889

> <CNNscore>
0.3487607241

> <CNNaffinity>
6.9187307358

> <CNN_VS>
2.4129815102

> <CNNaffinity_variance>
0.2559760809

$$$$



 39 44  0  0  0  0  0  0  0  0999 V2000
    6.7842    4.0467   23.9983 N   0  0  0  0  0  0  0  0  0  0  0  0
    7.7233    2.9176   23.6934 C   0  0  0  0  0  0  0  0  0  0  0  0
    7.6745    1.6602   24.5098 C   0  0  0  0  0  0  0  0  0  0  0  0
    7.7422    0.3493   25.2357 C   0  0  0  0  0  0  0  0  0  0  0  0
    7.2054   -0.2334   26.1570 O   0  0  0  0  0  0  0  0  0  0  0  0
    8.8204   -0.4774   24.6001 N   0  0  0  0  0  0  0  0  0  0  0  0
    9.4191    0.3226   23.4813 C   0  0  0  0  0  0  0  0  0  0  0  0
    8.7109    1.6437   23.4256 C   0  0  0  0  0  0  0  0  0  0  0  0
    6.6864    1.5319   25.6312 C   0  0  0  0  0  0  0  0  0  0  0  0
    6.6375    0.2746   26.4476 C   0  0  0  0  0  0  0  0  0  0  0  0
    5.6495    0.1463   27.5689 C   0  0  0  0  0  0  0  0  0  0  0  0
    5.6006   -1.1111   28.3853 Cl  0  0  0  0  0  0  0  0  0  0  0  0
    4.7103    1.2755   27.8737 C   0  0  0  0  0  0  0  0  0  0  0  0
    4.7592    2.5329   27.0573 C   0  0  0  0  0  0  0  0  0  0  0  0
    5.7472    2.6611   25.9360 C   0  0  0  0  0  0  0  0  0  0  0  0
    5.7961    3.9185   25.1195 C   0  0  0  0  0  0  0  0  0  0  0  0
    4.8569    5.0477   25.4244 O   0  0  0  0  0  0  0  0  0  0  0  0
    9.2283   -1.8611   25.0111 C   0  0  0  0  0  0  0  0  0  0  0  0
    8.2236   -2.9748   24.9962 C   0  0  0  0  0  0  0  0  0  0  0  0
    8.6315   -4.3585   25.4072 N   0  0  0  0  0  0  0  0  0  0  0  0
   10.0441   -4.6286   25.8330 C   0  0  0  0  0  0  0  0  0  0  0  0
   11.0489   -3.5149   25.8479 C   0  0  0  0  0  0  0  0  0  0  0  0
   12.4617   -3.7850   26.2738 C   0  0  0  0  0  0  0  0  0  0  0  0
   13.4664   -2.6713   26.2886 C   0  0  0  0  0  0  0  0  0  0  0  0
   13.0585   -1.2876   25.8776 C   0  0  0  0  0  0  0  0  0  0  0  0
   11.6458   -1.0175   25.4518 C   0  0  0  0  0  0  0  0  0  0  0  0
   10.6410   -2.1312   25.4369 C   0  0  0  0  0  0  0  0  0  0  0  0
    6.8330    5.3041   23.1818 C   0  0  0  0  0  0  0  0  0  0  0  0
    9.2533    7.5526   25.3811 C   0  0  0  0  0  0  0  0  0  0  0  0
    8.4896    6.3626   24.8805 N   0  0  0  0  0  0  0  0  0  0  0  0
    7.5968    6.4942   23.6824 C   0  0  0  0  0  0  0  0  0  0  0  0
    7.4677    7.8158   22.9847 O   0  0  0  0  0  0  0  0  0  0  0  0
    8.5743    5.4952   25.3384 H   0  0  0  0  0  0  0  0  0  0  0  0
    8.9900    2.7534   22.4558 C   0  0  0  0  0  0  0  0  0  0  0  0
   10.3054    3.4731   22.4978 N   0  0  0  0  0  0  0  0  0  0  0  0
   10.5015    4.9369   22.7599 N   0  0  0  0  0  0  0  0  0  0  0  0
   11.9729    5.2239   22.7092 C   0  0  0  0  0  0  0  0  0  0  0  0
   12.6862    3.9374   22.4158 N   0  0  0  0  0  0  0  0  0  0  0  0
   11.6556    2.8554   22.2851 N   0  0  0  0  0  0  0  0  0  0  0  0
 29 30  1  0  0  0
 30 31  1  0  0  0
 31 32  2  0  0  0
 31 28  1  0  0  0
 28  1  1  0  0  0
  1  2  1  0  0  0
  3  2  1  0  0  0
  3  4  1  0  0  0
  4  5  2  0  0  0
  4  6  1  0  0  0
  6 18  1  0  0  0
 18 19  2  0  0  0
 19 20  1  0  0  0
 20 21  2  0  0  0
 21 22  1  0  0  0
 22 23  2  0  0  0
 23 24  1  0  0  0
 24 25  2  0  0  0
 25 26  1  0  0  0
 26 27  2  0  0  0
  6  7  1  0  0  0
  7  8  1  0  0  0
  8 34  1  0  0  0
 34 35  1  0  0  0
 35 36  1  0  0  0
 36 37  2  0  0  0
 37 38  1  0  0  0
 38 39  2  0  0  0
  3  9  1  0  0  0
  9 10  2  0  0  0
 10 11  1  0  0  0
 11 12  1  0  0  0
 11 13  2  0  0  0
 13 14  1  0  0  0
 14 15  2  0  0  0
 15 16  1  0  0  0
 16 17  2  0  0  0
 16  1  1  0  0  0
  8  3  1  0  0  0
 39 35  1  0  0  0
 15  9  1  0  0  0
 27 18  1  0  0  0
 27 22  1  0  0  0
 30 33  1  0  0  0
M  END
> <minimizedAffinity>
-7.32567

> <CNNscore>
0.2423411161

> <CNNaffinity>
6.4463262558

> <CNN_VS>
1.5622098446

> <CNNaffinity_variance>
0.4767591953

$$$$



 39 44  0  0  0  0  0  0  0  0999 V2000
    6.6242    1.9597   21.6177 N   0  0  0  0  0  0  0  0  0  0  0  0
    7.9335    1.8298   22.3381 C   0  0  0  0  0  0  0  0  0  0  0  0
    8.3937    0.4863   22.8210 C   0  0  0  0  0  0  0  0  0  0  0  0
    8.9817   -0.7844   23.3592 C   0  0  0  0  0  0  0  0  0  0  0  0
    8.7263   -1.9700   23.4331 O   0  0  0  0  0  0  0  0  0  0  0  0
   10.2963   -0.4517   24.0005 N   0  0  0  0  0  0  0  0  0  0  0  0
   10.5208    1.0246   23.8587 C   0  0  0  0  0  0  0  0  0  0  0  0
    9.3449    1.6043   23.1298 C   0  0  0  0  0  0  0  0  0  0  0  0
    7.5446   -0.7273   22.5837 C   0  0  0  0  0  0  0  0  0  0  0  0
    8.0049   -2.0707   23.0667 C   0  0  0  0  0  0  0  0  0  0  0  0
    7.1558   -3.2843   22.8293 C   0  0  0  0  0  0  0  0  0  0  0  0
    7.6160   -4.6278   23.3123 Cl  0  0  0  0  0  0  0  0  0  0  0  0
    5.8465   -3.1544   22.1089 C   0  0  0  0  0  0  0  0  0  0  0  0
    5.3863   -1.8109   21.6260 C   0  0  0  0  0  0  0  0  0  0  0  0
    6.2354   -0.5974   21.8633 C   0  0  0  0  0  0  0  0  0  0  0  0
    5.7752    0.7461   21.3803 C   0  0  0  0  0  0  0  0  0  0  0  0
    4.4659    0.8761   20.6600 O   0  0  0  0  0  0  0  0  0  0  0  0
   11.2235   -1.4246   24.6666 C   0  0  0  0  0  0  0  0  0  0  0  0
   12.6645   -1.4895   24.2549 C   0  0  0  0  0  0  0  0  0  0  0  0
   13.5917   -2.4624   24.9210 N   0  0  0  0  0  0  0  0  0  0  0  0
   13.0780   -3.3703   25.9988 C   0  0  0  0  0  0  0  0  0  0  0  0
   11.6371   -3.3054   26.4106 C   0  0  0  0  0  0  0  0  0  0  0  0
   11.1234   -4.2134   27.4885 C   0  0  0  0  0  0  0  0  0  0  0  0
    9.6824   -4.1484   27.9001 C   0  0  0  0  0  0  0  0  0  0  0  0
    8.7552   -3.1755   27.2340 C   0  0  0  0  0  0  0  0  0  0  0  0
    9.2689   -2.2676   26.1561 C   0  0  0  0  0  0  0  0  0  0  0  0
   10.7098   -2.3325   25.7444 C   0  0  0  0  0  0  0  0  0  0  0  0
    6.1640    3.3032   21.1347 C   0  0  0  0  0  0  0  0  0  0  0  0
    3.3285    5.9268   22.0440 C   0  0  0  0  0  0  0  0  0  0  0  0
    4.3457    5.1549   21.2569 N   0  0  0  0  0  0  0  0  0  0  0  0
    5.1468    4.0751   21.9218 C   0  0  0  0  0  0  0  0  0  0  0  0
    4.9306    3.7670   23.3739 O   0  0  0  0  0  0  0  0  0  0  0  0
    4.4876    5.3571   20.3039 H   0  0  0  0  0  0  0  0  0  0  0  0
    9.1539    3.0485   22.7723 C   0  0  0  0  0  0  0  0  0  0  0  0
   10.3466    3.9347   22.5676 N   0  0  0  0  0  0  0  0  0  0  0  0
   10.4464    5.3813   22.9513 N   0  0  0  0  0  0  0  0  0  0  0  0
   11.8104    5.8706   22.5642 C   0  0  0  0  0  0  0  0  0  0  0  0
   12.5538    4.7263   21.9412 N   0  0  0  0  0  0  0  0  0  0  0  0
   11.6491    3.5299   21.9434 N   0  0  0  0  0  0  0  0  0  0  0  0
 29 30  1  0  0  0
 30 31  1  0  0  0
 31 32  2  0  0  0
 31 28  1  0  0  0
 28  1  1  0  0  0
  1  2  1  0  0  0
  3  2  1  0  0  0
  3  4  1  0  0  0
  4  5  2  0  0  0
  4  6  1  0  0  0
  6 18  1  0  0  0
 18 19  2  0  0  0
 19 20  1  0  0  0
 20 21  2  0  0  0
 21 22  1  0  0  0
 22 23  2  0  0  0
 23 24  1  0  0  0
 24 25  2  0  0  0
 25 26  1  0  0  0
 26 27  2  0  0  0
  6  7  1  0  0  0
  7  8  1  0  0  0
  8 34  1  0  0  0
 34 35  1  0  0  0
 35 36  1  0  0  0
 36 37  2  0  0  0
 37 38  1  0  0  0
 38 39  2  0  0  0
  3  9  1  0  0  0
  9 10  2  0  0  0
 10 11  1  0  0  0
 11 12  1  0  0  0
 11 13  2  0  0  0
 13 14  1  0  0  0
 14 15  2  0  0  0
 15 16  1  0  0  0
 16 17  2  0  0  0
 16  1  1  0  0  0
  8  3  1  0  0  0
 39 35  1  0  0  0
 15  9  1  0  0  0
 27 18  1  0  0  0
 27 22  1  0  0  0
 30 33  1  0  0  0
M  END
> <minimizedAffinity>
-8.01554

> <CNNscore>
0.2358928025

> <CNNaffinity>
6.7307333946

> <CNN_VS>
1.5877315998

> <CNNaffinity_variance>
0.3546912074

$$$$



 39 44  0  0  0  0  0  0  0  0999 V2000
    3.7128    2.5344   23.5568 N   0  0  0  0  0  0  0  0  0  0  0  0
    4.8977    1.7213   23.1271 C   0  0  0  0  0  0  0  0  0  0  0  0
    5.5201    0.7422   24.0779 C   0  0  0  0  0  0  0  0  0  0  0  0
    6.2445   -0.2706   24.9142 C   0  0  0  0  0  0  0  0  0  0  0  0
    6.2054   -0.7589   26.0261 O   0  0  0  0  0  0  0  0  0  0  0  0
    7.3608   -0.8396   24.0896 N   0  0  0  0  0  0  0  0  0  0  0  0
    7.3263   -0.1785   22.7436 C   0  0  0  0  0  0  0  0  0  0  0  0
    6.1887    0.7991   22.7364 C   0  0  0  0  0  0  0  0  0  0  0  0
    4.9574    0.5762   25.4585 C   0  0  0  0  0  0  0  0  0  0  0  0
    5.5797   -0.4029   26.4093 C   0  0  0  0  0  0  0  0  0  0  0  0
    5.0171   -0.5689   27.7898 C   0  0  0  0  0  0  0  0  0  0  0  0
    5.6394   -1.5480   28.7406 Cl  0  0  0  0  0  0  0  0  0  0  0  0
    3.8321    0.2443   28.2195 C   0  0  0  0  0  0  0  0  0  0  0  0
    3.2098    1.2234   27.2687 C   0  0  0  0  0  0  0  0  0  0  0  0
    3.7724    1.3893   25.8882 C   0  0  0  0  0  0  0  0  0  0  0  0
    3.1501    2.3685   24.9373 C   0  0  0  0  0  0  0  0  0  0  0  0
    1.9651    3.1816   25.3671 O   0  0  0  0  0  0  0  0  0  0  0  0
    8.3397   -1.8861   24.5331 C   0  0  0  0  0  0  0  0  0  0  0  0
    7.8515   -3.2433   24.9452 C   0  0  0  0  0  0  0  0  0  0  0  0
    8.8304   -4.2897   25.3887 N   0  0  0  0  0  0  0  0  0  0  0  0
   10.2975   -3.9789   25.4202 C   0  0  0  0  0  0  0  0  0  0  0  0
   10.7857   -2.6218   25.0081 C   0  0  0  0  0  0  0  0  0  0  0  0
   12.2529   -2.3110   25.0396 C   0  0  0  0  0  0  0  0  0  0  0  0
   12.7410   -0.9538   24.6276 C   0  0  0  0  0  0  0  0  0  0  0  0
   11.7621    0.0926   24.1841 C   0  0  0  0  0  0  0  0  0  0  0  0
   10.2950   -0.2182   24.1526 C   0  0  0  0  0  0  0  0  0  0  0  0
    9.8068   -1.5753   24.5646 C   0  0  0  0  0  0  0  0  0  0  0  0
    3.0904    3.5136   22.6060 C   0  0  0  0  0  0  0  0  0  0  0  0
    0.8828    3.0492   19.3409 C   0  0  0  0  0  0  0  0  0  0  0  0
    1.9895    3.4892   20.2528 N   0  0  0  0  0  0  0  0  0  0  0  0
    1.9837    3.0736   21.6941 C   0  0  0  0  0  0  0  0  0  0  0  0
    0.8712    2.2179   22.2235 O   0  0  0  0  0  0  0  0  0  0  0  0
    2.7196    4.0508   19.9054 H   0  0  0  0  0  0  0  0  0  0  0  0
    5.7898    1.6791   21.5890 C   0  0  0  0  0  0  0  0  0  0  0  0
    5.8071    1.1405   20.1893 N   0  0  0  0  0  0  0  0  0  0  0  0
    4.6495    1.1267   19.2355 N   0  0  0  0  0  0  0  0  0  0  0  0
    5.1120    0.4987   17.9542 C   0  0  0  0  0  0  0  0  0  0  0  0
    6.5555    0.1244   18.1161 N   0  0  0  0  0  0  0  0  0  0  0  0
    6.9851    0.5211   19.4974 N   0  0  0  0  0  0  0  0  0  0  0  0
 29 30  1  0  0  0
 30 31  1  0  0  0
 31 32  2  0  0  0
 31 28  1  0  0  0
 28  1  1  0  0  0
  1  2  1  0  0  0
  3  2  1  0  0  0
  3  4  1  0  0  0
  4  5  2  0  0  0
  4  6  1  0  0  0
  6 18  1  0  0  0
 18 19  2  0  0  0
 19 20  1  0  0  0
 20 21  2  0  0  0
 21 22  1  0  0  0
 22 23  2  0  0  0
 23 24  1  0  0  0
 24 25  2  0  0  0
 25 26  1  0  0  0
 26 27  2  0  0  0
  6  7  1  0  0  0
  7  8  1  0  0  0
  8 34  1  0  0  0
 34 35  1  0  0  0
 35 36  1  0  0  0
 36 37  2  0  0  0
 37 38  1  0  0  0
 38 39  2  0  0  0
  3  9  1  0  0  0
  9 10  2  0  0  0
 10 11  1  0  0  0
 11 12  1  0  0  0
 11 13  2  0  0  0
 13 14  1  0  0  0
 14 15  2  0  0  0
 15 16  1  0  0  0
 16 17  2  0  0  0
 16  1  1  0  0  0
  8  3  1  0  0  0
 39 35  1  0  0  0
 15  9  1  0  0  0
 27 18  1  0  0  0
 27 22  1  0  0  0
 30 33  1  0  0  0
M  END
> <minimizedAffinity>
-7.26028

> <CNNscore>
0.2261124402

> <CNNaffinity>
6.6238069534

> <CNN_VS>
1.4977251291

> <CNNaffinity_variance>
0.2305846959

$$$$
