


 44 49  0  0  0  0  0  0  0  0999 V2000
   -8.7898   -4.9730  -24.2929 N   0  0  0  0  0  0  0  0  0  0  0  0
   -8.0098   -6.0900  -24.9204 C   0  0  0  0  0  0  0  0  0  0  0  0
   -6.6187   -6.3917  -24.4471 C   0  0  0  0  0  0  0  0  0  0  0  0
   -5.8387   -7.5087  -25.0746 C   0  0  0  0  0  0  0  0  0  0  0  0
   -4.4477   -7.8103  -24.6013 C   0  0  0  0  0  0  0  0  0  0  0  0
   -3.8368   -6.9950  -23.5004 C   0  0  0  0  0  0  0  0  0  0  0  0
   -2.4457   -7.2967  -23.0271 Cl  0  0  0  0  0  0  0  0  0  0  0  0
   -4.6168   -5.8780  -22.8729 C   0  0  0  0  0  0  0  0  0  0  0  0
   -6.0078   -5.5763  -23.3462 C   0  0  0  0  0  0  0  0  0  0  0  0
   -6.7879   -4.4593  -22.7187 C   0  0  0  0  0  0  0  0  0  0  0  0
   -8.1789   -4.1576  -23.1921 C   0  0  0  0  0  0  0  0  0  0  0  0
   -9.2053   -5.5274  -25.0415 H   0  0  0  0  0  0  0  0  0  0  0  0
   -6.1769   -3.6439  -21.6178 C   0  0  0  0  0  0  0  0  0  0  0  0
   -5.2166   -4.2806  -20.6573 O   0  0  0  0  0  0  0  0  0  0  0  0
   -6.5261   -2.1919  -21.4775 N   0  0  0  0  0  0  0  0  0  0  0  0
   -7.1564   -1.7741  -22.1079 H   0  0  0  0  0  0  0  0  0  0  0  0
   -5.9152   -1.3766  -20.3766 C   0  0  0  0  0  0  0  0  0  0  0  0
   -6.3776   -1.5607  -18.9617 C   0  0  0  0  0  0  0  0  0  0  0  0
   -5.7666   -0.7454  -17.8608 N   0  0  0  0  0  0  0  0  0  0  0  0
   -4.6932    0.2542  -18.1749 C   0  0  0  0  0  0  0  0  0  0  0  0
   -4.2307    0.4383  -19.5900 C   0  0  0  0  0  0  0  0  0  0  0  0
   -3.1573    1.4379  -19.9041 C   0  0  0  0  0  0  0  0  0  0  0  0
   -2.6948    1.6220  -21.3190 C   0  0  0  0  0  0  0  0  0  0  0  0
   -3.3058    0.8066  -22.4199 C   0  0  0  0  0  0  0  0  0  0  0  0
   -4.3792   -0.1929  -22.1058 C   0  0  0  0  0  0  0  0  0  0  0  0
   -4.8417   -0.3770  -20.6908 C   0  0  0  0  0  0  0  0  0  0  0  0
  -10.1809   -4.6713  -24.7663 C   0  0  0  0  0  0  0  0  0  0  0  0
  -10.9674   -2.6218  -26.1558 O   0  0  0  0  0  0  0  0  0  0  0  0
  -10.6602   -3.2513  -24.8294 C   0  0  0  0  0  0  0  0  0  0  0  0
  -10.8323   -2.4610  -23.5662 N   0  0  0  0  0  0  0  0  0  0  0  0
  -10.6306   -2.8742  -22.6957 H   0  0  0  0  0  0  0  0  0  0  0  0
  -11.3116   -1.0410  -23.6294 C   0  0  0  0  0  0  0  0  0  0  0  0
  -12.7814   -0.7433  -23.5955 C   0  0  0  0  0  0  0  0  0  0  0  0
  -13.2607    0.6766  -23.6586 C   0  0  0  0  0  0  0  0  0  0  0  0
  -12.2703    1.7988  -23.7556 C   0  0  0  0  0  0  0  0  0  0  0  0
  -10.8005    1.5012  -23.7895 C   0  0  0  0  0  0  0  0  0  0  0  0
  -10.3211    0.0813  -23.7264 C   0  0  0  0  0  0  0  0  0  0  0  0
  -12.7496    3.2189  -23.8188 N   0  0  0  0  0  0  0  0  0  0  0  0
  -12.8600    3.9150  -25.1429 C   0  0  0  0  0  0  0  0  0  0  0  0
  -13.3393    5.3349  -25.2060 C   0  0  0  0  0  0  0  0  0  0  0  0
  -13.7082    6.0588  -23.9451 O   0  0  0  0  0  0  0  0  0  0  0  0
  -13.5977    5.3627  -22.6210 C   0  0  0  0  0  0  0  0  0  0  0  0
  -13.1184    3.9427  -22.5578 C   0  0  0  0  0  0  0  0  0  0  0  0
  -13.0080    3.2466  -21.2337 O   0  0  0  0  0  0  0  0  0  0  0  0
 28 29  2  0  0  0
 29 27  1  0  0  0
  1 27  1  0  0  0
  1  2  1  0  0  0
  2  3  1  0  0  0
  3  4  2  0  0  0
  4  5  1  0  0  0
  5  6  2  0  0  0
  6  7  1  0  0  0
  6  8  1  0  0  0
  8  9  2  0  0  0
  9 10  1  0  0  0
 10 13  1  0  0  0
 13 14  2  0  0  0
 13 15  1  0  0  0
 15 17  1  0  0  0
 17 18  2  0  0  0
 18 19  1  0  0  0
 19 20  2  0  0  0
 20 21  1  0  0  0
 21 22  2  0  0  0
 22 23  1  0  0  0
 23 24  2  0  0  0
 24 25  1  0  0  0
 25 26  2  0  0  0
 10 11  1  0  0  0
 29 30  1  0  0  0
 30 32  1  0  0  0
 32 33  2  0  0  0
 33 34  1  0  0  0
 34 35  2  0  0  0
 35 38  1  0  0  0
 38 39  1  0  0  0
 39 40  1  0  0  0
 40 41  1  0  0  0
 41 42  1  0  0  0
 42 43  1  0  0  0
 43 44  2  0  0  0
 35 36  1  0  0  0
 36 37  2  0  0  0
 11  1  1  0  0  0
 37 32  1  0  0  0
  9  3  1  0  0  0
 26 17  1  0  0  0
 43 38  1  0  0  0
 26 21  1  0  0  0
  1 12  1  0  0  0
 15 16  1  0  0  0
 30 31  1  0  0  0
M  CHG 1   1   1
M  END
> <minimizedAffinity>
-9.16196

> <CNNscore>
0.6019300818

> <CNNaffinity>
6.6665482521

> <CNN_VS>
4.0127959251

> <CNNaffinity_variance>
0.2324626744

$$$$



 44 49  0  0  0  0  0  0  0  0999 V2000
   -7.9266   -2.6197  -22.7202 N   0  0  0  0  0  0  0  0  0  0  0  0
   -6.6592   -1.9434  -22.2886 C   0  0  0  0  0  0  0  0  0  0  0  0
   -6.5884   -0.4460  -22.2362 C   0  0  0  0  0  0  0  0  0  0  0  0
   -5.3210    0.2303  -21.8046 C   0  0  0  0  0  0  0  0  0  0  0  0
   -5.2503    1.7277  -21.7522 C   0  0  0  0  0  0  0  0  0  0  0  0
   -6.4470    2.5488  -22.1313 C   0  0  0  0  0  0  0  0  0  0  0  0
   -6.3762    4.0462  -22.0788 Cl  0  0  0  0  0  0  0  0  0  0  0  0
   -7.7144    1.8725  -22.5628 C   0  0  0  0  0  0  0  0  0  0  0  0
   -7.7851    0.3752  -22.6153 C   0  0  0  0  0  0  0  0  0  0  0  0
   -9.0526   -0.3012  -23.0469 C   0  0  0  0  0  0  0  0  0  0  0  0
   -9.1233   -1.7986  -23.0993 C   0  0  0  0  0  0  0  0  0  0  0  0
   -7.1129   -3.1781  -22.4624 H   0  0  0  0  0  0  0  0  0  0  0  0
  -10.2492    0.5199  -23.4260 C   0  0  0  0  0  0  0  0  0  0  0  0
  -11.3784   -0.1076  -24.1884 O   0  0  0  0  0  0  0  0  0  0  0  0
  -10.3168    1.9686  -23.0427 N   0  0  0  0  0  0  0  0  0  0  0  0
   -9.5757    2.3804  -22.5424 H   0  0  0  0  0  0  0  0  0  0  0  0
  -11.5134    2.7897  -23.4219 C   0  0  0  0  0  0  0  0  0  0  0  0
  -12.7373    2.7765  -22.5547 C   0  0  0  0  0  0  0  0  0  0  0  0
  -13.9340    3.5976  -22.9339 N   0  0  0  0  0  0  0  0  0  0  0  0
  -13.9068    4.4319  -24.1801 C   0  0  0  0  0  0  0  0  0  0  0  0
  -12.6829    4.4451  -25.0473 C   0  0  0  0  0  0  0  0  0  0  0  0
  -12.6557    5.2794  -26.2935 C   0  0  0  0  0  0  0  0  0  0  0  0
  -11.4318    5.2926  -27.1607 C   0  0  0  0  0  0  0  0  0  0  0  0
  -10.2352    4.4715  -26.7815 C   0  0  0  0  0  0  0  0  0  0  0  0
  -10.2623    3.6372  -25.5353 C   0  0  0  0  0  0  0  0  0  0  0  0
  -11.4862    3.6240  -24.6682 C   0  0  0  0  0  0  0  0  0  0  0  0
   -7.9974   -4.1172  -22.7727 C   0  0  0  0  0  0  0  0  0  0  0  0
   -5.8127   -5.4213  -22.2471 O   0  0  0  0  0  0  0  0  0  0  0  0
   -6.8121   -4.9081  -23.2410 C   0  0  0  0  0  0  0  0  0  0  0  0
   -6.6262   -5.1858  -24.7033 N   0  0  0  0  0  0  0  0  0  0  0  0
   -7.2822   -4.8490  -25.3556 H   0  0  0  0  0  0  0  0  0  0  0  0
   -5.4408   -5.9768  -25.1717 C   0  0  0  0  0  0  0  0  0  0  0  0
   -4.2466   -5.2712  -25.7427 C   0  0  0  0  0  0  0  0  0  0  0  0
   -3.0613   -6.0621  -26.2111 C   0  0  0  0  0  0  0  0  0  0  0  0
   -3.0702   -7.5585  -26.1086 C   0  0  0  0  0  0  0  0  0  0  0  0
   -4.2644   -8.2641  -25.5377 C   0  0  0  0  0  0  0  0  0  0  0  0
   -5.4497   -7.4732  -25.0692 C   0  0  0  0  0  0  0  0  0  0  0  0
   -1.8848   -8.3495  -26.5770 N   0  0  0  0  0  0  0  0  0  0  0  0
   -1.4242   -8.2386  -28.0003 C   0  0  0  0  0  0  0  0  0  0  0  0
   -0.2389   -9.0295  -28.4687 C   0  0  0  0  0  0  0  0  0  0  0  0
    0.4859   -9.9313  -27.5140 O   0  0  0  0  0  0  0  0  0  0  0  0
    0.0252  -10.0422  -26.0907 C   0  0  0  0  0  0  0  0  0  0  0  0
   -1.1601   -9.2512  -25.6223 C   0  0  0  0  0  0  0  0  0  0  0  0
   -1.6208   -9.3621  -24.1991 O   0  0  0  0  0  0  0  0  0  0  0  0
 28 29  2  0  0  0
 29 27  1  0  0  0
  1 27  1  0  0  0
  1  2  1  0  0  0
  2  3  1  0  0  0
  3  4  2  0  0  0
  4  5  1  0  0  0
  5  6  2  0  0  0
  6  7  1  0  0  0
  6  8  1  0  0  0
  8  9  2  0  0  0
  9 10  1  0  0  0
 10 13  1  0  0  0
 13 14  2  0  0  0
 13 15  1  0  0  0
 15 17  1  0  0  0
 17 18  2  0  0  0
 18 19  1  0  0  0
 19 20  2  0  0  0
 20 21  1  0  0  0
 21 22  2  0  0  0
 22 23  1  0  0  0
 23 24  2  0  0  0
 24 25  1  0  0  0
 25 26  2  0  0  0
 10 11  1  0  0  0
 29 30  1  0  0  0
 30 32  1  0  0  0
 32 33  2  0  0  0
 33 34  1  0  0  0
 34 35  2  0  0  0
 35 38  1  0  0  0
 38 39  1  0  0  0
 39 40  1  0  0  0
 40 41  1  0  0  0
 41 42  1  0  0  0
 42 43  1  0  0  0
 43 44  2  0  0  0
 35 36  1  0  0  0
 36 37  2  0  0  0
 11  1  1  0  0  0
 37 32  1  0  0  0
  9  3  1  0  0  0
 26 17  1  0  0  0
 43 38  1  0  0  0
 26 21  1  0  0  0
  1 12  1  0  0  0
 15 16  1  0  0  0
 30 31  1  0  0  0
M  CHG 1   1   1
M  END
> <minimizedAffinity>
-7.93784

> <CNNscore>
0.2439956963

> <CNNaffinity>
5.7405710220

> <CNN_VS>
1.4006745815

> <CNNaffinity_variance>
0.1904348731

$$$$



 44 49  0  0  0  0  0  0  0  0999 V2000
  -10.1390   -3.0857  -24.1940 N   0  0  0  0  0  0  0  0  0  0  0  0
  -11.4443   -2.3970  -24.4619 C   0  0  0  0  0  0  0  0  0  0  0  0
  -11.7163   -1.0473  -23.8665 C   0  0  0  0  0  0  0  0  0  0  0  0
  -13.0216   -0.3586  -24.1344 C   0  0  0  0  0  0  0  0  0  0  0  0
  -13.2935    0.9910  -23.5390 C   0  0  0  0  0  0  0  0  0  0  0  0
  -12.2601    1.6520  -22.6758 C   0  0  0  0  0  0  0  0  0  0  0  0
  -12.5321    3.0017  -22.0804 Cl  0  0  0  0  0  0  0  0  0  0  0  0
  -10.9548    0.9633  -22.4079 C   0  0  0  0  0  0  0  0  0  0  0  0
  -10.6829   -0.3863  -23.0032 C   0  0  0  0  0  0  0  0  0  0  0  0
   -9.3775   -1.0751  -22.7353 C   0  0  0  0  0  0  0  0  0  0  0  0
   -9.1056   -2.4247  -23.3307 C   0  0  0  0  0  0  0  0  0  0  0  0
  -10.8417   -3.5351  -24.7810 H   0  0  0  0  0  0  0  0  0  0  0  0
   -8.3441   -0.4142  -21.8721 C   0  0  0  0  0  0  0  0  0  0  0  0
   -8.3021    1.0814  -21.7642 O   0  0  0  0  0  0  0  0  0  0  0  0
   -7.3527   -1.2487  -21.1167 N   0  0  0  0  0  0  0  0  0  0  0  0
   -7.3803   -2.2303  -21.1875 H   0  0  0  0  0  0  0  0  0  0  0  0
   -6.3193   -0.5878  -20.2534 C   0  0  0  0  0  0  0  0  0  0  0  0
   -6.5219   -0.5072  -18.7694 C   0  0  0  0  0  0  0  0  0  0  0  0
   -5.4885    0.1537  -17.9061 N   0  0  0  0  0  0  0  0  0  0  0  0
   -4.2525    0.7341  -18.5268 C   0  0  0  0  0  0  0  0  0  0  0  0
   -4.0499    0.6536  -20.0110 C   0  0  0  0  0  0  0  0  0  0  0  0
   -2.8139    1.2340  -20.6317 C   0  0  0  0  0  0  0  0  0  0  0  0
   -2.6113    1.1534  -22.1158 C   0  0  0  0  0  0  0  0  0  0  0  0
   -3.6447    0.4925  -22.9790 C   0  0  0  0  0  0  0  0  0  0  0  0
   -4.8807   -0.0879  -22.3583 C   0  0  0  0  0  0  0  0  0  0  0  0
   -5.0833   -0.0074  -20.8742 C   0  0  0  0  0  0  0  0  0  0  0  0
   -9.8670   -4.4354  -24.7894 C   0  0  0  0  0  0  0  0  0  0  0  0
   -8.0432   -5.2748  -23.1404 O   0  0  0  0  0  0  0  0  0  0  0  0
   -8.5518   -5.1129  -24.5422 C   0  0  0  0  0  0  0  0  0  0  0  0
   -7.7452   -5.6286  -25.6969 N   0  0  0  0  0  0  0  0  0  0  0  0
   -8.0790   -5.5223  -26.6170 H   0  0  0  0  0  0  0  0  0  0  0  0
   -6.4299   -6.3061  -25.4499 C   0  0  0  0  0  0  0  0  0  0  0  0
   -5.7936   -7.1263  -26.5327 C   0  0  0  0  0  0  0  0  0  0  0  0
   -4.4784   -7.8038  -26.2857 C   0  0  0  0  0  0  0  0  0  0  0  0
   -3.7994   -7.6612  -24.9558 C   0  0  0  0  0  0  0  0  0  0  0  0
   -4.4357   -6.8411  -23.8729 C   0  0  0  0  0  0  0  0  0  0  0  0
   -5.7509   -6.1636  -24.1200 C   0  0  0  0  0  0  0  0  0  0  0  0
   -2.4841   -8.3388  -24.7087 N   0  0  0  0  0  0  0  0  0  0  0  0
   -2.0413   -9.4635  -25.5969 C   0  0  0  0  0  0  0  0  0  0  0  0
   -0.7261  -10.1411  -25.3499 C   0  0  0  0  0  0  0  0  0  0  0  0
    0.1464   -9.6939  -24.2146 O   0  0  0  0  0  0  0  0  0  0  0  0
   -0.2964   -8.5692  -23.3264 C   0  0  0  0  0  0  0  0  0  0  0  0
   -1.6117   -7.8916  -23.5734 C   0  0  0  0  0  0  0  0  0  0  0  0
   -2.0545   -6.7669  -22.6852 O   0  0  0  0  0  0  0  0  0  0  0  0
 28 29  2  0  0  0
 29 27  1  0  0  0
  1 27  1  0  0  0
  1  2  1  0  0  0
  2  3  1  0  0  0
  3  4  2  0  0  0
  4  5  1  0  0  0
  5  6  2  0  0  0
  6  7  1  0  0  0
  6  8  1  0  0  0
  8  9  2  0  0  0
  9 10  1  0  0  0
 10 13  1  0  0  0
 13 14  2  0  0  0
 13 15  1  0  0  0
 15 17  1  0  0  0
 17 18  2  0  0  0
 18 19  1  0  0  0
 19 20  2  0  0  0
 20 21  1  0  0  0
 21 22  2  0  0  0
 22 23  1  0  0  0
 23 24  2  0  0  0
 24 25  1  0  0  0
 25 26  2  0  0  0
 10 11  1  0  0  0
 29 30  1  0  0  0
 30 32  1  0  0  0
 32 33  2  0  0  0
 33 34  1  0  0  0
 34 35  2  0  0  0
 35 38  1  0  0  0
 38 39  1  0  0  0
 39 40  1  0  0  0
 40 41  1  0  0  0
 41 42  1  0  0  0
 42 43  1  0  0  0
 43 44  2  0  0  0
 35 36  1  0  0  0
 36 37  2  0  0  0
 11  1  1  0  0  0
 37 32  1  0  0  0
  9  3  1  0  0  0
 26 17  1  0  0  0
 43 38  1  0  0  0
 26 21  1  0  0  0
  1 12  1  0  0  0
 15 16  1  0  0  0
 30 31  1  0  0  0
M  CHG 1   1   1
M  END
> <minimizedAffinity>
-8.89169

> <CNNscore>
0.2183895111

> <CNNaffinity>
6.1508302689

> <CNN_VS>
1.3432768583

> <CNNaffinity_variance>
0.0288709793

$$$$



 44 49  0  0  0  0  0  0  0  0999 V2000
   -8.5726   -4.0050  -23.3377 N   0  0  0  0  0  0  0  0  0  0  0  0
   -9.9317   -3.5350  -23.7643 C   0  0  0  0  0  0  0  0  0  0  0  0
  -10.3311   -2.1046  -23.5531 C   0  0  0  0  0  0  0  0  0  0  0  0
  -11.6902   -1.6346  -23.9797 C   0  0  0  0  0  0  0  0  0  0  0  0
  -12.0896   -0.2043  -23.7684 C   0  0  0  0  0  0  0  0  0  0  0  0
  -11.1299    0.7560  -23.1306 C   0  0  0  0  0  0  0  0  0  0  0  0
  -11.5294    2.1864  -22.9193 Cl  0  0  0  0  0  0  0  0  0  0  0  0
   -9.7708    0.2860  -22.7040 C   0  0  0  0  0  0  0  0  0  0  0  0
   -9.3715   -1.1443  -22.9152 C   0  0  0  0  0  0  0  0  0  0  0  0
   -8.0123   -1.6143  -22.4886 C   0  0  0  0  0  0  0  0  0  0  0  0
   -7.6129   -3.0446  -22.6999 C   0  0  0  0  0  0  0  0  0  0  0  0
   -9.2252   -4.6580  -23.7715 H   0  0  0  0  0  0  0  0  0  0  0  0
   -7.0527   -0.6540  -21.8508 C   0  0  0  0  0  0  0  0  0  0  0  0
   -7.5502    0.6506  -21.3027 O   0  0  0  0  0  0  0  0  0  0  0  0
   -5.5955   -0.9983  -21.7610 N   0  0  0  0  0  0  0  0  0  0  0  0
   -5.2690   -1.8546  -22.1208 H   0  0  0  0  0  0  0  0  0  0  0  0
   -4.6358   -0.0380  -21.1232 C   0  0  0  0  0  0  0  0  0  0  0  0
   -4.7672    0.2977  -19.6672 C   0  0  0  0  0  0  0  0  0  0  0  0
   -3.8076    1.2580  -19.0294 N   0  0  0  0  0  0  0  0  0  0  0  0
   -2.7165    1.8826  -19.8475 C   0  0  0  0  0  0  0  0  0  0  0  0
   -2.5851    1.5469  -21.3036 C   0  0  0  0  0  0  0  0  0  0  0  0
   -1.4940    2.1715  -22.1218 C   0  0  0  0  0  0  0  0  0  0  0  0
   -1.3626    1.8357  -23.5777 C   0  0  0  0  0  0  0  0  0  0  0  0
   -2.3222    0.8754  -24.2156 C   0  0  0  0  0  0  0  0  0  0  0  0
   -3.4133    0.2508  -23.3974 C   0  0  0  0  0  0  0  0  0  0  0  0
   -3.5447    0.5866  -21.9414 C   0  0  0  0  0  0  0  0  0  0  0  0
   -8.1732   -5.4353  -23.5490 C   0  0  0  0  0  0  0  0  0  0  0  0
   -7.1610   -5.3756  -25.9410 O   0  0  0  0  0  0  0  0  0  0  0  0
   -7.0608   -5.7711  -24.4976 C   0  0  0  0  0  0  0  0  0  0  0  0
   -5.8483   -6.5025  -24.0028 N   0  0  0  0  0  0  0  0  0  0  0  0
   -5.7826   -6.7621  -23.0554 H   0  0  0  0  0  0  0  0  0  0  0  0
   -4.7359   -6.8384  -24.9514 C   0  0  0  0  0  0  0  0  0  0  0  0
   -4.0084   -5.7424  -25.6722 C   0  0  0  0  0  0  0  0  0  0  0  0
   -2.8961   -6.0782  -26.6208 C   0  0  0  0  0  0  0  0  0  0  0  0
   -2.5113   -7.5099  -26.8487 C   0  0  0  0  0  0  0  0  0  0  0  0
   -3.2388   -8.6059  -26.1279 C   0  0  0  0  0  0  0  0  0  0  0  0
   -4.3511   -8.2701  -25.1793 C   0  0  0  0  0  0  0  0  0  0  0  0
   -1.3989   -7.8458  -27.7973 N   0  0  0  0  0  0  0  0  0  0  0  0
    0.0281   -7.7421  -27.3466 C   0  0  0  0  0  0  0  0  0  0  0  0
    1.1405   -8.0779  -28.2952 C   0  0  0  0  0  0  0  0  0  0  0  0
    0.8259   -8.5174  -29.6945 O   0  0  0  0  0  0  0  0  0  0  0  0
   -0.6010   -8.6211  -30.1452 C   0  0  0  0  0  0  0  0  0  0  0  0
   -1.7134   -8.2852  -29.1965 C   0  0  0  0  0  0  0  0  0  0  0  0
   -3.1404   -8.3889  -29.6472 O   0  0  0  0  0  0  0  0  0  0  0  0
 28 29  2  0  0  0
 29 27  1  0  0  0
  1 27  1  0  0  0
  1  2  1  0  0  0
  2  3  1  0  0  0
  3  4  2  0  0  0
  4  5  1  0  0  0
  5  6  2  0  0  0
  6  7  1  0  0  0
  6  8  1  0  0  0
  8  9  2  0  0  0
  9 10  1  0  0  0
 10 13  1  0  0  0
 13 14  2  0  0  0
 13 15  1  0  0  0
 15 17  1  0  0  0
 17 18  2  0  0  0
 18 19  1  0  0  0
 19 20  2  0  0  0
 20 21  1  0  0  0
 21 22  2  0  0  0
 22 23  1  0  0  0
 23 24  2  0  0  0
 24 25  1  0  0  0
 25 26  2  0  0  0
 10 11  1  0  0  0
 29 30  1  0  0  0
 30 32  1  0  0  0
 32 33  2  0  0  0
 33 34  1  0  0  0
 34 35  2  0  0  0
 35 38  1  0  0  0
 38 39  1  0  0  0
 39 40  1  0  0  0
 40 41  1  0  0  0
 41 42  1  0  0  0
 42 43  1  0  0  0
 43 44  2  0  0  0
 35 36  1  0  0  0
 36 37  2  0  0  0
 11  1  1  0  0  0
 37 32  1  0  0  0
  9  3  1  0  0  0
 26 17  1  0  0  0
 43 38  1  0  0  0
 26 21  1  0  0  0
  1 12  1  0  0  0
 15 16  1  0  0  0
 30 31  1  0  0  0
M  CHG 1   1   1
M  END
> <minimizedAffinity>
-7.77287

> <CNNscore>
0.2033509761

> <CNNaffinity>
5.8818998337

> <CNN_VS>
1.1960901022

> <CNNaffinity_variance>
0.1048653945

$$$$



 44 49  0  0  0  0  0  0  0  0999 V2000
  -10.5551   -3.1499  -23.6489 N   0  0  0  0  0  0  0  0  0  0  0  0
  -10.4355   -4.3768  -24.5033 C   0  0  0  0  0  0  0  0  0  0  0  0
   -9.0834   -4.9534  -24.8027 C   0  0  0  0  0  0  0  0  0  0  0  0
   -8.9637   -6.1804  -25.6572 C   0  0  0  0  0  0  0  0  0  0  0  0
   -7.6117   -6.7569  -25.9565 C   0  0  0  0  0  0  0  0  0  0  0  0
   -6.3793   -6.1064  -25.4013 C   0  0  0  0  0  0  0  0  0  0  0  0
   -5.0273   -6.6830  -25.7007 Cl  0  0  0  0  0  0  0  0  0  0  0  0
   -6.4990   -4.8795  -24.5469 C   0  0  0  0  0  0  0  0  0  0  0  0
   -7.8510   -4.3029  -24.2475 C   0  0  0  0  0  0  0  0  0  0  0  0
   -7.9707   -3.0759  -23.3930 C   0  0  0  0  0  0  0  0  0  0  0  0
   -9.3228   -2.4994  -23.0937 C   0  0  0  0  0  0  0  0  0  0  0  0
  -11.3931   -3.5922  -24.0264 H   0  0  0  0  0  0  0  0  0  0  0  0
   -6.7384   -2.4254  -22.8379 C   0  0  0  0  0  0  0  0  0  0  0  0
   -5.7805   -3.2230  -22.0034 O   0  0  0  0  0  0  0  0  0  0  0  0
   -6.4639   -0.9775  -23.1172 N   0  0  0  0  0  0  0  0  0  0  0  0
   -7.0926   -0.4540  -23.6649 H   0  0  0  0  0  0  0  0  0  0  0  0
   -5.2316   -0.3270  -22.5621 C   0  0  0  0  0  0  0  0  0  0  0  0
   -4.0932    0.0237  -23.4736 C   0  0  0  0  0  0  0  0  0  0  0  0
   -2.8608    0.6742  -22.9185 N   0  0  0  0  0  0  0  0  0  0  0  0
   -2.7669    0.9739  -21.4518 C   0  0  0  0  0  0  0  0  0  0  0  0
   -3.9053    0.6232  -20.5401 C   0  0  0  0  0  0  0  0  0  0  0  0
   -3.8113    0.9229  -19.0734 C   0  0  0  0  0  0  0  0  0  0  0  0
   -4.9497    0.5721  -18.1618 C   0  0  0  0  0  0  0  0  0  0  0  0
   -6.1821   -0.0784  -18.7170 C   0  0  0  0  0  0  0  0  0  0  0  0
   -6.2760   -0.3781  -20.1837 C   0  0  0  0  0  0  0  0  0  0  0  0
   -5.1376   -0.0273  -21.0953 C   0  0  0  0  0  0  0  0  0  0  0  0
  -11.9072   -2.5733  -23.3495 C   0  0  0  0  0  0  0  0  0  0  0  0
  -13.3766   -1.0209  -24.8263 O   0  0  0  0  0  0  0  0  0  0  0  0
  -12.2621   -1.2004  -23.8385 C   0  0  0  0  0  0  0  0  0  0  0  0
  -11.5025   -0.0070  -23.3398 N   0  0  0  0  0  0  0  0  0  0  0  0
  -10.7711   -0.1248  -22.6914 H   0  0  0  0  0  0  0  0  0  0  0  0
  -11.8574    1.3660  -23.8288 C   0  0  0  0  0  0  0  0  0  0  0  0
  -10.8062    2.2344  -24.4540 C   0  0  0  0  0  0  0  0  0  0  0  0
  -11.1611    3.6073  -24.9430 C   0  0  0  0  0  0  0  0  0  0  0  0
  -12.5671    4.1118  -24.8068 C   0  0  0  0  0  0  0  0  0  0  0  0
  -13.6183    3.2434  -24.1816 C   0  0  0  0  0  0  0  0  0  0  0  0
  -13.2634    1.8705  -23.6926 C   0  0  0  0  0  0  0  0  0  0  0  0
  -12.9220    5.4848  -25.2958 N   0  0  0  0  0  0  0  0  0  0  0  0
  -12.6025    5.8845  -26.7059 C   0  0  0  0  0  0  0  0  0  0  0  0
  -12.9573    7.2574  -27.1949 C   0  0  0  0  0  0  0  0  0  0  0  0
  -13.6317    8.2306  -26.2739 O   0  0  0  0  0  0  0  0  0  0  0  0
  -13.9512    7.8309  -24.8639 C   0  0  0  0  0  0  0  0  0  0  0  0
  -13.5963    6.4579  -24.3749 C   0  0  0  0  0  0  0  0  0  0  0  0
  -13.9158    6.0581  -22.9649 O   0  0  0  0  0  0  0  0  0  0  0  0
 28 29  2  0  0  0
 29 27  1  0  0  0
  1 27  1  0  0  0
  1  2  1  0  0  0
  2  3  1  0  0  0
  3  4  2  0  0  0
  4  5  1  0  0  0
  5  6  2  0  0  0
  6  7  1  0  0  0
  6  8  1  0  0  0
  8  9  2  0  0  0
  9 10  1  0  0  0
 10 13  1  0  0  0
 13 14  2  0  0  0
 13 15  1  0  0  0
 15 17  1  0  0  0
 17 18  2  0  0  0
 18 19  1  0  0  0
 19 20  2  0  0  0
 20 21  1  0  0  0
 21 22  2  0  0  0
 22 23  1  0  0  0
 23 24  2  0  0  0
 24 25  1  0  0  0
 25 26  2  0  0  0
 10 11  1  0  0  0
 29 30  1  0  0  0
 30 32  1  0  0  0
 32 33  2  0  0  0
 33 34  1  0  0  0
 34 35  2  0  0  0
 35 38  1  0  0  0
 38 39  1  0  0  0
 39 40  1  0  0  0
 40 41  1  0  0  0
 41 42  1  0  0  0
 42 43  1  0  0  0
 43 44  2  0  0  0
 35 36  1  0  0  0
 36 37  2  0  0  0
 11  1  1  0  0  0
 37 32  1  0  0  0
  9  3  1  0  0  0
 26 17  1  0  0  0
 43 38  1  0  0  0
 26 21  1  0  0  0
  1 12  1  0  0  0
 15 16  1  0  0  0
 30 31  1  0  0  0
M  CHG 1   1   1
M  END
> <minimizedAffinity>
-7.81932

> <CNNscore>
0.2024668753

> <CNNaffinity>
6.0726337433

> <CNN_VS>
1.2295072079

> <CNNaffinity_variance>
0.0329388529

$$$$



 44 49  0  0  0  0  0  0  0  0999 V2000
   -7.2489   -4.2782  -23.4590 N   0  0  0  0  0  0  0  0  0  0  0  0
   -8.3411   -4.1939  -24.4836 C   0  0  0  0  0  0  0  0  0  0  0  0
   -8.2632   -5.0208  -25.7328 C   0  0  0  0  0  0  0  0  0  0  0  0
   -9.3554   -4.9365  -26.7574 C   0  0  0  0  0  0  0  0  0  0  0  0
   -9.2774   -5.7634  -28.0064 C   0  0  0  0  0  0  0  0  0  0  0  0
   -8.1073   -6.6747  -28.2308 C   0  0  0  0  0  0  0  0  0  0  0  0
   -8.0293   -7.5016  -29.4799 Cl  0  0  0  0  0  0  0  0  0  0  0  0
   -7.0150   -6.7590  -27.2062 C   0  0  0  0  0  0  0  0  0  0  0  0
   -7.0930   -5.9321  -25.9572 C   0  0  0  0  0  0  0  0  0  0  0  0
   -6.0007   -6.0164  -24.9324 C   0  0  0  0  0  0  0  0  0  0  0  0
   -6.0787   -5.1895  -23.6834 C   0  0  0  0  0  0  0  0  0  0  0  0
   -8.0446   -3.6586  -23.3064 H   0  0  0  0  0  0  0  0  0  0  0  0
   -4.8306   -6.9276  -25.1568 C   0  0  0  0  0  0  0  0  0  0  0  0
   -4.8527   -8.3249  -24.6116 O   0  0  0  0  0  0  0  0  0  0  0  0
   -3.6383   -6.4416  -25.9264 N   0  0  0  0  0  0  0  0  0  0  0  0
   -3.6238   -5.5246  -26.2842 H   0  0  0  0  0  0  0  0  0  0  0  0
   -2.4681   -7.3529  -26.1508 C   0  0  0  0  0  0  0  0  0  0  0  0
   -2.3492   -8.1184  -27.4352 C   0  0  0  0  0  0  0  0  0  0  0  0
   -1.1790   -9.0296  -27.6596 N   0  0  0  0  0  0  0  0  0  0  0  0
   -0.1278   -9.1753  -26.5996 C   0  0  0  0  0  0  0  0  0  0  0  0
   -0.2467   -8.4097  -25.3151 C   0  0  0  0  0  0  0  0  0  0  0  0
    0.8046   -8.5554  -24.2551 C   0  0  0  0  0  0  0  0  0  0  0  0
    0.6856   -7.7898  -22.9707 C   0  0  0  0  0  0  0  0  0  0  0  0
   -0.4846   -6.8786  -22.7463 C   0  0  0  0  0  0  0  0  0  0  0  0
   -1.5358   -6.7329  -23.8063 C   0  0  0  0  0  0  0  0  0  0  0  0
   -1.4168   -7.4985  -25.0907 C   0  0  0  0  0  0  0  0  0  0  0  0
   -7.3268   -3.4513  -22.2099 C   0  0  0  0  0  0  0  0  0  0  0  0
   -7.2877   -0.9115  -22.7554 O   0  0  0  0  0  0  0  0  0  0  0  0
   -6.6390   -2.1198  -22.1478 C   0  0  0  0  0  0  0  0  0  0  0  0
   -5.3025   -1.9966  -21.4782 N   0  0  0  0  0  0  0  0  0  0  0  0
   -4.8767   -2.7896  -21.0795 H   0  0  0  0  0  0  0  0  0  0  0  0
   -4.6146   -0.6650  -21.4161 C   0  0  0  0  0  0  0  0  0  0  0  0
   -4.6508    0.1396  -20.1507 C   0  0  0  0  0  0  0  0  0  0  0  0
   -3.9630    1.4711  -20.0885 C   0  0  0  0  0  0  0  0  0  0  0  0
   -3.2389    1.9981  -21.2918 C   0  0  0  0  0  0  0  0  0  0  0  0
   -3.2027    1.1935  -22.5573 C   0  0  0  0  0  0  0  0  0  0  0  0
   -3.8905   -0.1380  -22.6194 C   0  0  0  0  0  0  0  0  0  0  0  0
   -2.5511    3.3297  -21.2297 N   0  0  0  0  0  0  0  0  0  0  0  0
   -3.1009    4.4944  -21.9986 C   0  0  0  0  0  0  0  0  0  0  0  0
   -2.4131    5.8259  -21.9365 C   0  0  0  0  0  0  0  0  0  0  0  0
   -1.1754    5.9928  -21.1056 O   0  0  0  0  0  0  0  0  0  0  0  0
   -0.6256    4.8281  -20.3367 C   0  0  0  0  0  0  0  0  0  0  0  0
   -1.3135    3.4965  -20.3988 C   0  0  0  0  0  0  0  0  0  0  0  0
   -0.7637    2.3318  -19.6299 O   0  0  0  0  0  0  0  0  0  0  0  0
 28 29  2  0  0  0
 29 27  1  0  0  0
  1 27  1  0  0  0
  1  2  1  0  0  0
  2  3  1  0  0  0
  3  4  2  0  0  0
  4  5  1  0  0  0
  5  6  2  0  0  0
  6  7  1  0  0  0
  6  8  1  0  0  0
  8  9  2  0  0  0
  9 10  1  0  0  0
 10 13  1  0  0  0
 13 14  2  0  0  0
 13 15  1  0  0  0
 15 17  1  0  0  0
 17 18  2  0  0  0
 18 19  1  0  0  0
 19 20  2  0  0  0
 20 21  1  0  0  0
 21 22  2  0  0  0
 22 23  1  0  0  0
 23 24  2  0  0  0
 24 25  1  0  0  0
 25 26  2  0  0  0
 10 11  1  0  0  0
 29 30  1  0  0  0
 30 32  1  0  0  0
 32 33  2  0  0  0
 33 34  1  0  0  0
 34 35  2  0  0  0
 35 38  1  0  0  0
 38 39  1  0  0  0
 39 40  1  0  0  0
 40 41  1  0  0  0
 41 42  1  0  0  0
 42 43  1  0  0  0
 43 44  2  0  0  0
 35 36  1  0  0  0
 36 37  2  0  0  0
 11  1  1  0  0  0
 37 32  1  0  0  0
  9  3  1  0  0  0
 26 17  1  0  0  0
 43 38  1  0  0  0
 26 21  1  0  0  0
  1 12  1  0  0  0
 15 16  1  0  0  0
 30 31  1  0  0  0
M  CHG 1   1   1
M  END
> <minimizedAffinity>
-7.52210

> <CNNscore>
0.1792342365

> <CNNaffinity>
5.7259597778

> <CNN_VS>
1.0262880325

> <CNNaffinity_variance>
0.0659363195

$$$$



 44 49  0  0  0  0  0  0  0  0999 V2000
   -7.4549   -3.8756  -23.7301 N   0  0  0  0  0  0  0  0  0  0  0  0
   -8.6409   -4.2686  -24.5601 C   0  0  0  0  0  0  0  0  0  0  0  0
   -8.4468   -5.0697  -25.8134 C   0  0  0  0  0  0  0  0  0  0  0  0
   -9.6328   -5.4627  -26.6435 C   0  0  0  0  0  0  0  0  0  0  0  0
   -9.4387   -6.2638  -27.8967 C   0  0  0  0  0  0  0  0  0  0  0  0
   -8.0587   -6.6719  -28.3198 C   0  0  0  0  0  0  0  0  0  0  0  0
   -7.8647   -7.4731  -29.5731 Cl  0  0  0  0  0  0  0  0  0  0  0  0
   -6.8728   -6.2789  -27.4897 C   0  0  0  0  0  0  0  0  0  0  0  0
   -7.0668   -5.4778  -26.2365 C   0  0  0  0  0  0  0  0  0  0  0  0
   -5.8809   -5.0848  -25.4064 C   0  0  0  0  0  0  0  0  0  0  0  0
   -6.0749   -4.2837  -24.1532 C   0  0  0  0  0  0  0  0  0  0  0  0
   -8.3933   -3.5980  -23.4423 H   0  0  0  0  0  0  0  0  0  0  0  0
   -4.5009   -5.4929  -25.8295 C   0  0  0  0  0  0  0  0  0  0  0  0
   -3.5315   -4.4600  -26.3230 O   0  0  0  0  0  0  0  0  0  0  0  0
   -4.0902   -6.9338  -25.7593 N   0  0  0  0  0  0  0  0  0  0  0  0
   -4.7265   -7.6118  -25.4354 H   0  0  0  0  0  0  0  0  0  0  0  0
   -2.7102   -7.3420  -26.1824 C   0  0  0  0  0  0  0  0  0  0  0  0
   -2.4617   -7.8000  -27.5889 C   0  0  0  0  0  0  0  0  0  0  0  0
   -1.0817   -8.2082  -28.0120 N   0  0  0  0  0  0  0  0  0  0  0  0
    0.0498   -8.1582  -27.0286 C   0  0  0  0  0  0  0  0  0  0  0  0
   -0.1987   -7.7001  -25.6220 C   0  0  0  0  0  0  0  0  0  0  0  0
    0.9329   -7.6501  -24.6386 C   0  0  0  0  0  0  0  0  0  0  0  0
    0.6844   -7.1920  -23.2321 C   0  0  0  0  0  0  0  0  0  0  0  0
   -0.6956   -6.7839  -22.8090 C   0  0  0  0  0  0  0  0  0  0  0  0
   -1.8271   -6.8339  -23.7924 C   0  0  0  0  0  0  0  0  0  0  0  0
   -1.5787   -7.2920  -25.1989 C   0  0  0  0  0  0  0  0  0  0  0  0
   -7.6489   -3.0744  -22.4768 C   0  0  0  0  0  0  0  0  0  0  0  0
   -8.4691   -0.8985  -21.3181 O   0  0  0  0  0  0  0  0  0  0  0  0
   -8.4412   -1.8014  -22.5156 C   0  0  0  0  0  0  0  0  0  0  0  0
   -9.2057   -1.4311  -23.7519 N   0  0  0  0  0  0  0  0  0  0  0  0
   -9.1874   -2.0237  -24.5379 H   0  0  0  0  0  0  0  0  0  0  0  0
   -9.9980   -0.1580  -23.7907 C   0  0  0  0  0  0  0  0  0  0  0  0
   -9.3095    1.1457  -24.0665 C   0  0  0  0  0  0  0  0  0  0  0  0
  -10.1017    2.4188  -24.1054 C   0  0  0  0  0  0  0  0  0  0  0  0
  -11.5825    2.3881  -23.8684 C   0  0  0  0  0  0  0  0  0  0  0  0
  -12.2711    1.0844  -23.5926 C   0  0  0  0  0  0  0  0  0  0  0  0
  -11.4788   -0.1887  -23.5538 C   0  0  0  0  0  0  0  0  0  0  0  0
  -12.3749    3.6613  -23.9072 N   0  0  0  0  0  0  0  0  0  0  0  0
  -12.4501    4.4594  -25.1750 C   0  0  0  0  0  0  0  0  0  0  0  0
  -13.2424    5.7325  -25.2139 C   0  0  0  0  0  0  0  0  0  0  0  0
  -13.9595    6.2074  -23.9849 O   0  0  0  0  0  0  0  0  0  0  0  0
  -13.8842    5.4093  -22.7171 C   0  0  0  0  0  0  0  0  0  0  0  0
  -13.0919    4.1362  -22.6783 C   0  0  0  0  0  0  0  0  0  0  0  0
  -13.0167    3.3380  -21.4105 O   0  0  0  0  0  0  0  0  0  0  0  0
 28 29  2  0  0  0
 29 27  1  0  0  0
  1 27  1  0  0  0
  1  2  1  0  0  0
  2  3  1  0  0  0
  3  4  2  0  0  0
  4  5  1  0  0  0
  5  6  2  0  0  0
  6  7  1  0  0  0
  6  8  1  0  0  0
  8  9  2  0  0  0
  9 10  1  0  0  0
 10 13  1  0  0  0
 13 14  2  0  0  0
 13 15  1  0  0  0
 15 17  1  0  0  0
 17 18  2  0  0  0
 18 19  1  0  0  0
 19 20  2  0  0  0
 20 21  1  0  0  0
 21 22  2  0  0  0
 22 23  1  0  0  0
 23 24  2  0  0  0
 24 25  1  0  0  0
 25 26  2  0  0  0
 10 11  1  0  0  0
 29 30  1  0  0  0
 30 32  1  0  0  0
 32 33  2  0  0  0
 33 34  1  0  0  0
 34 35  2  0  0  0
 35 38  1  0  0  0
 38 39  1  0  0  0
 39 40  1  0  0  0
 40 41  1  0  0  0
 41 42  1  0  0  0
 42 43  1  0  0  0
 43 44  2  0  0  0
 35 36  1  0  0  0
 36 37  2  0  0  0
 11  1  1  0  0  0
 37 32  1  0  0  0
  9  3  1  0  0  0
 26 17  1  0  0  0
 43 38  1  0  0  0
 26 21  1  0  0  0
  1 12  1  0  0  0
 15 16  1  0  0  0
 30 31  1  0  0  0
M  CHG 1   1   1
M  END
> <minimizedAffinity>
-8.07124

> <CNNscore>
0.1402788609

> <CNNaffinity>
5.7187767029

> <CNN_VS>
0.8022235036

> <CNNaffinity_variance>
0.2243597507

$$$$



 44 49  0  0  0  0  0  0  0  0999 V2000
   -6.9621   -1.1666  -22.4634 N   0  0  0  0  0  0  0  0  0  0  0  0
   -8.1053   -2.0944  -22.1762 C   0  0  0  0  0  0  0  0  0  0  0  0
   -9.4992   -1.7141  -22.5792 C   0  0  0  0  0  0  0  0  0  0  0  0
  -10.6424   -2.6419  -22.2921 C   0  0  0  0  0  0  0  0  0  0  0  0
  -12.0363   -2.2616  -22.6951 C   0  0  0  0  0  0  0  0  0  0  0  0
  -12.2870   -0.9536  -23.3852 C   0  0  0  0  0  0  0  0  0  0  0  0
  -13.6810   -0.5734  -23.7882 Cl  0  0  0  0  0  0  0  0  0  0  0  0
  -11.1439   -0.0259  -23.6723 C   0  0  0  0  0  0  0  0  0  0  0  0
   -9.7500   -0.4061  -23.2693 C   0  0  0  0  0  0  0  0  0  0  0  0
   -8.6067    0.5216  -23.5565 C   0  0  0  0  0  0  0  0  0  0  0  0
   -7.2129    0.1414  -23.1535 C   0  0  0  0  0  0  0  0  0  0  0  0
   -6.7916   -2.0561  -21.9941 H   0  0  0  0  0  0  0  0  0  0  0  0
   -8.8575    1.8296  -24.2466 C   0  0  0  0  0  0  0  0  0  0  0  0
   -8.8434    1.9019  -25.7448 O   0  0  0  0  0  0  0  0  0  0  0  0
   -9.1223    3.0653  -23.4385 N   0  0  0  0  0  0  0  0  0  0  0  0
   -9.1315    3.0178  -22.4552 H   0  0  0  0  0  0  0  0  0  0  0  0
   -9.3730    4.3733  -24.1287 C   0  0  0  0  0  0  0  0  0  0  0  0
   -8.2430    5.3355  -24.3457 C   0  0  0  0  0  0  0  0  0  0  0  0
   -8.4937    6.6435  -25.0358 N   0  0  0  0  0  0  0  0  0  0  0  0
   -9.8745    6.9893  -25.5089 C   0  0  0  0  0  0  0  0  0  0  0  0
  -11.0046    6.0271  -25.2918 C   0  0  0  0  0  0  0  0  0  0  0  0
  -12.3854    6.3729  -25.7649 C   0  0  0  0  0  0  0  0  0  0  0  0
  -13.5154    5.4107  -25.5478 C   0  0  0  0  0  0  0  0  0  0  0  0
  -13.2647    4.1027  -24.8577 C   0  0  0  0  0  0  0  0  0  0  0  0
  -11.8839    3.7569  -24.3846 C   0  0  0  0  0  0  0  0  0  0  0  0
  -10.7539    4.7191  -24.6017 C   0  0  0  0  0  0  0  0  0  0  0  0
   -5.5681   -1.5469  -22.0604 C   0  0  0  0  0  0  0  0  0  0  0  0
   -4.4419   -0.3600  -20.0423 O   0  0  0  0  0  0  0  0  0  0  0  0
   -4.6322   -0.5051  -21.5230 C   0  0  0  0  0  0  0  0  0  0  0  0
   -3.8867    0.3915  -22.4665 N   0  0  0  0  0  0  0  0  0  0  0  0
   -4.0117    0.2963  -23.4384 H   0  0  0  0  0  0  0  0  0  0  0  0
   -2.9508    1.4334  -21.9292 C   0  0  0  0  0  0  0  0  0  0  0  0
   -1.5007    1.4079  -22.3121 C   0  0  0  0  0  0  0  0  0  0  0  0
   -0.5647    2.4497  -21.7748 C   0  0  0  0  0  0  0  0  0  0  0  0
   -1.0789    3.5169  -20.8547 C   0  0  0  0  0  0  0  0  0  0  0  0
   -2.5290    3.5423  -20.4718 C   0  0  0  0  0  0  0  0  0  0  0  0
   -3.4649    2.5006  -21.0090 C   0  0  0  0  0  0  0  0  0  0  0  0
   -0.1429    4.5587  -20.3174 N   0  0  0  0  0  0  0  0  0  0  0  0
    0.6868    4.2666  -19.1023 C   0  0  0  0  0  0  0  0  0  0  0  0
    1.6227    5.3083  -18.5650 C   0  0  0  0  0  0  0  0  0  0  0  0
    1.7290    6.6423  -19.2427 O   0  0  0  0  0  0  0  0  0  0  0  0
    0.8993    6.9345  -20.4577 C   0  0  0  0  0  0  0  0  0  0  0  0
   -0.0366    5.8926  -20.9951 C   0  0  0  0  0  0  0  0  0  0  0  0
   -0.8663    6.1848  -22.2101 O   0  0  0  0  0  0  0  0  0  0  0  0
 28 29  2  0  0  0
 29 27  1  0  0  0
  1 27  1  0  0  0
  1  2  1  0  0  0
  2  3  1  0  0  0
  3  4  2  0  0  0
  4  5  1  0  0  0
  5  6  2  0  0  0
  6  7  1  0  0  0
  6  8  1  0  0  0
  8  9  2  0  0  0
  9 10  1  0  0  0
 10 13  1  0  0  0
 13 14  2  0  0  0
 13 15  1  0  0  0
 15 17  1  0  0  0
 17 18  2  0  0  0
 18 19  1  0  0  0
 19 20  2  0  0  0
 20 21  1  0  0  0
 21 22  2  0  0  0
 22 23  1  0  0  0
 23 24  2  0  0  0
 24 25  1  0  0  0
 25 26  2  0  0  0
 10 11  1  0  0  0
 29 30  1  0  0  0
 30 32  1  0  0  0
 32 33  2  0  0  0
 33 34  1  0  0  0
 34 35  2  0  0  0
 35 38  1  0  0  0
 38 39  1  0  0  0
 39 40  1  0  0  0
 40 41  1  0  0  0
 41 42  1  0  0  0
 42 43  1  0  0  0
 43 44  2  0  0  0
 35 36  1  0  0  0
 36 37  2  0  0  0
 11  1  1  0  0  0
 37 32  1  0  0  0
  9  3  1  0  0  0
 26 17  1  0  0  0
 43 38  1  0  0  0
 26 21  1  0  0  0
  1 12  1  0  0  0
 15 16  1  0  0  0
 30 31  1  0  0  0
M  CHG 1   1   1
M  END
> <minimizedAffinity>
-7.74828

> <CNNscore>
0.1390743554

> <CNNaffinity>
5.8572783470

> <CNN_VS>
0.8145971894

> <CNNaffinity_variance>
0.1264482737

$$$$



 44 49  0  0  0  0  0  0  0  0999 V2000
  -10.3094   -3.0633  -24.3314 N   0  0  0  0  0  0  0  0  0  0  0  0
  -11.6337   -2.3649  -24.4225 C   0  0  0  0  0  0  0  0  0  0  0  0
  -11.7812   -0.9657  -23.9021 C   0  0  0  0  0  0  0  0  0  0  0  0
  -13.1056   -0.2674  -23.9932 C   0  0  0  0  0  0  0  0  0  0  0  0
  -13.2530    1.1317  -23.4729 C   0  0  0  0  0  0  0  0  0  0  0  0
  -12.0760    1.8324  -22.8615 C   0  0  0  0  0  0  0  0  0  0  0  0
  -12.2235    3.2316  -22.3412 Cl  0  0  0  0  0  0  0  0  0  0  0  0
  -10.7517    1.1341  -22.7705 C   0  0  0  0  0  0  0  0  0  0  0  0
  -10.6043   -0.2650  -23.2908 C   0  0  0  0  0  0  0  0  0  0  0  0
   -9.2798   -0.9634  -23.1997 C   0  0  0  0  0  0  0  0  0  0  0  0
   -9.1324   -2.3625  -23.7200 C   0  0  0  0  0  0  0  0  0  0  0  0
  -11.1097   -3.5398  -24.7471 H   0  0  0  0  0  0  0  0  0  0  0  0
   -8.1029   -0.2627  -22.5884 C   0  0  0  0  0  0  0  0  0  0  0  0
   -8.2612    0.4801  -21.2948 O   0  0  0  0  0  0  0  0  0  0  0  0
   -6.7677   -0.3046  -23.2706 N   0  0  0  0  0  0  0  0  0  0  0  0
   -6.6638   -0.7921  -24.1196 H   0  0  0  0  0  0  0  0  0  0  0  0
   -5.5907    0.3961  -22.6592 C   0  0  0  0  0  0  0  0  0  0  0  0
   -4.6372   -0.3629  -21.7848 C   0  0  0  0  0  0  0  0  0  0  0  0
   -3.4602    0.3379  -21.1735 N   0  0  0  0  0  0  0  0  0  0  0  0
   -3.2369    1.7976  -21.4365 C   0  0  0  0  0  0  0  0  0  0  0  0
   -4.1905    2.5567  -22.3109 C   0  0  0  0  0  0  0  0  0  0  0  0
   -3.9671    4.0164  -22.5739 C   0  0  0  0  0  0  0  0  0  0  0  0
   -4.9207    4.7754  -23.4483 C   0  0  0  0  0  0  0  0  0  0  0  0
   -6.0976    4.0747  -24.0597 C   0  0  0  0  0  0  0  0  0  0  0  0
   -6.3210    2.6149  -23.7966 C   0  0  0  0  0  0  0  0  0  0  0  0
   -5.3674    1.8559  -22.9223 C   0  0  0  0  0  0  0  0  0  0  0  0
  -10.1619   -4.4624  -24.8517 C   0  0  0  0  0  0  0  0  0  0  0  0
   -8.4668   -6.0832  -25.9695 O   0  0  0  0  0  0  0  0  0  0  0  0
   -8.8114   -5.1147  -24.8772 C   0  0  0  0  0  0  0  0  0  0  0  0
   -7.8056   -4.7984  -23.8104 N   0  0  0  0  0  0  0  0  0  0  0  0
   -8.0318   -4.1628  -23.0934 H   0  0  0  0  0  0  0  0  0  0  0  0
   -6.4550   -5.4507  -23.8358 C   0  0  0  0  0  0  0  0  0  0  0  0
   -6.0103   -6.2997  -22.6819 C   0  0  0  0  0  0  0  0  0  0  0  0
   -4.6598   -6.9519  -22.7073 C   0  0  0  0  0  0  0  0  0  0  0  0
   -3.7540   -6.7552  -23.8866 C   0  0  0  0  0  0  0  0  0  0  0  0
   -4.1987   -5.9062  -25.0405 C   0  0  0  0  0  0  0  0  0  0  0  0
   -5.5492   -5.2539  -25.0151 C   0  0  0  0  0  0  0  0  0  0  0  0
   -2.4034   -7.4075  -23.9121 N   0  0  0  0  0  0  0  0  0  0  0  0
   -1.2527   -6.7780  -23.1843 C   0  0  0  0  0  0  0  0  0  0  0  0
    0.0978   -7.4302  -23.2097 C   0  0  0  0  0  0  0  0  0  0  0  0
    0.2977   -8.7119  -23.9629 O   0  0  0  0  0  0  0  0  0  0  0  0
   -0.8530   -9.3414  -24.6907 C   0  0  0  0  0  0  0  0  0  0  0  0
   -2.2036   -8.6891  -24.6653 C   0  0  0  0  0  0  0  0  0  0  0  0
   -3.3543   -9.3186  -25.3931 O   0  0  0  0  0  0  0  0  0  0  0  0
 28 29  2  0  0  0
 29 27  1  0  0  0
  1 27  1  0  0  0
  1  2  1  0  0  0
  2  3  1  0  0  0
  3  4  2  0  0  0
  4  5  1  0  0  0
  5  6  2  0  0  0
  6  7  1  0  0  0
  6  8  1  0  0  0
  8  9  2  0  0  0
  9 10  1  0  0  0
 10 13  1  0  0  0
 13 14  2  0  0  0
 13 15  1  0  0  0
 15 17  1  0  0  0
 17 18  2  0  0  0
 18 19  1  0  0  0
 19 20  2  0  0  0
 20 21  1  0  0  0
 21 22  2  0  0  0
 22 23  1  0  0  0
 23 24  2  0  0  0
 24 25  1  0  0  0
 25 26  2  0  0  0
 10 11  1  0  0  0
 29 30  1  0  0  0
 30 32  1  0  0  0
 32 33  2  0  0  0
 33 34  1  0  0  0
 34 35  2  0  0  0
 35 38  1  0  0  0
 38 39  1  0  0  0
 39 40  1  0  0  0
 40 41  1  0  0  0
 41 42  1  0  0  0
 42 43  1  0  0  0
 43 44  2  0  0  0
 35 36  1  0  0  0
 36 37  2  0  0  0
 11  1  1  0  0  0
 37 32  1  0  0  0
  9  3  1  0  0  0
 26 17  1  0  0  0
 43 38  1  0  0  0
 26 21  1  0  0  0
  1 12  1  0  0  0
 15 16  1  0  0  0
 30 31  1  0  0  0
M  CHG 1   1   1
M  END
> <minimizedAffinity>
-7.84277

> <CNNscore>
0.1337666363

> <CNNaffinity>
5.8484902382

> <CNN_VS>
0.7823328376

> <CNNaffinity_variance>
0.0975898951

$$$$
