


 42 48  0  0  0  0  0  0  0  0999 V2000
    7.0538   -6.5506   24.7551 O   0  0  0  0  0  0  0  0  0  0  0  0
    7.0576   -5.2396   24.0261 C   0  0  0  0  0  0  0  0  0  0  0  0
    8.0744   -4.1923   24.3716 C   0  0  0  0  0  0  0  0  0  0  0  0
    9.0874   -4.4560   25.4460 C   0  0  0  0  0  0  0  0  0  0  0  0
   10.1041   -3.4087   25.7914 C   0  0  0  0  0  0  0  0  0  0  0  0
   10.1079   -2.0977   25.0624 C   0  0  0  0  0  0  0  0  0  0  0  0
   11.2355   -1.3015   25.6496 Cl  0  0  0  0  0  0  0  0  0  0  0  0
    9.0949   -1.8340   23.9881 C   0  0  0  0  0  0  0  0  0  0  0  0
    8.0782   -2.8813   23.6426 C   0  0  0  0  0  0  0  0  0  0  0  0
    7.0651   -2.6177   22.5682 C   0  0  0  0  0  0  0  0  0  0  0  0
    6.0484   -3.6650   22.2228 C   0  0  0  0  0  0  0  0  0  0  0  0
    6.0446   -4.9759   22.9518 N   0  0  0  0  0  0  0  0  0  0  0  0
    6.1193   -2.2131   21.4766 C   0  0  0  0  0  0  0  0  0  0  0  0
    5.0036   -3.0485   20.9222 O   0  0  0  0  0  0  0  0  0  0  0  0
    6.4850   -0.8265   21.0366 N   0  0  0  0  0  0  0  0  0  0  0  0
    7.6569   -0.3741   21.8563 C   0  0  0  0  0  0  0  0  0  0  0  0
    8.0154   -1.4811   22.8029 C   0  0  0  0  0  0  0  0  0  0  0  0
    5.7992   -0.0319   19.9650 C   0  0  0  0  0  0  0  0  0  0  0  0
    6.2907   -0.1007   18.5496 C   0  0  0  0  0  0  0  0  0  0  0  0
    5.6049    0.6939   17.4780 N   0  0  0  0  0  0  0  0  0  0  0  0
    4.4276    1.5574   17.8220 C   0  0  0  0  0  0  0  0  0  0  0  0
    3.9361    1.6262   19.2375 C   0  0  0  0  0  0  0  0  0  0  0  0
    2.7587    2.4898   19.5815 C   0  0  0  0  0  0  0  0  0  0  0  0
    2.2673    2.5586   20.9970 C   0  0  0  0  0  0  0  0  0  0  0  0
    2.9531    1.7639   22.0685 C   0  0  0  0  0  0  0  0  0  0  0  0
    4.1304    0.9005   21.7245 C   0  0  0  0  0  0  0  0  0  0  0  0
    4.6219    0.8316   20.3091 C   0  0  0  0  0  0  0  0  0  0  0  0
    5.0278   -6.0232   22.6063 C   0  0  0  0  0  0  0  0  0  0  0  0
    3.7613   -6.1306   23.4028 C   0  0  0  0  0  0  0  0  0  0  0  0
    3.5718   -5.6834   24.8219 N   0  0  0  0  0  0  0  0  0  0  0  0
    2.1553   -5.9804   25.2163 N   0  0  0  0  0  0  0  0  0  0  0  0
    1.4695   -6.6112   24.0408 C   0  0  0  0  0  0  0  0  0  0  0  0
    2.4620   -6.7041   22.9200 O   0  0  0  0  0  0  0  0  0  0  0  0
    9.1288   -1.4559   23.8078 C   0  0  0  0  0  0  0  0  0  0  0  0
    9.4008   -0.2082   24.5948 N   0  0  0  0  0  0  0  0  0  0  0  0
    9.3001   -0.2123   25.5741 H   0  0  0  0  0  0  0  0  0  0  0  0
    9.8264    1.0454   23.8899 C   0  0  0  0  0  0  0  0  0  0  0  0
   11.2305    1.1790   23.3793 C   0  0  0  0  0  0  0  0  0  0  0  0
   11.6560    2.4328   22.6743 C   0  0  0  0  0  0  0  0  0  0  0  0
   10.6775    3.5530   22.4800 N   0  0  0  0  0  0  0  0  0  0  0  0
    9.2735    3.4194   22.9906 C   0  0  0  0  0  0  0  0  0  0  0  0
    8.8479    2.1657   23.6955 N   0  0  0  0  0  0  0  0  0  0  0  0
  1  2  2  0  0  0
  2  3  1  0  0  0
  3  4  2  0  0  0
  4  5  1  0  0  0
  5  6  2  0  0  0
  6  7  1  0  0  0
  6  8  1  0  0  0
  8  9  2  0  0  0
  9 10  1  0  0  0
 10 11  1  0  0  0
 11 12  1  0  0  0
 12 28  1  0  0  0
 28 29  1  0  0  0
 29 30  2  0  0  0
 30 31  1  0  0  0
 31 32  2  0  0  0
 32 33  1  0  0  0
 10 13  1  0  0  0
 13 14  2  0  0  0
 13 15  1  0  0  0
 15 18  1  0  0  0
 18 19  2  0  0  0
 19 20  1  0  0  0
 20 21  2  0  0  0
 21 22  1  0  0  0
 22 23  2  0  0  0
 23 24  1  0  0  0
 24 25  2  0  0  0
 25 26  1  0  0  0
 26 27  2  0  0  0
 15 16  1  0  0  0
 16 17  1  0  0  0
 17 34  1  0  0  0
 34 35  1  0  0  0
 35 37  1  0  0  0
 37 38  2  0  0  0
 38 39  1  0  0  0
 39 40  2  0  0  0
 40 41  1  0  0  0
 41 42  2  0  0  0
 12  2  1  0  0  0
 33 29  1  0  0  0
 27 18  1  0  0  0
 42 37  1  0  0  0
  9  3  1  0  0  0
 17 10  1  0  0  0
 27 22  1  0  0  0
 35 36  1  0  0  0
M  END
> <minimizedAffinity>
-8.73842

> <CNNscore>
0.5940275192

> <CNNaffinity>
7.1763672829

> <CNN_VS>
4.2629594803

> <CNNaffinity_variance>
0.1042366400

$$$$



 42 48  0  0  0  0  0  0  0  0999 V2000
    4.8824   -2.7502   20.9066 O   0  0  0  0  0  0  0  0  0  0  0  0
    5.9496   -1.8838   21.5070 C   0  0  0  0  0  0  0  0  0  0  0  0
    6.5899   -2.2742   22.8061 C   0  0  0  0  0  0  0  0  0  0  0  0
    6.1630   -3.5310   23.5048 C   0  0  0  0  0  0  0  0  0  0  0  0
    6.8033   -3.9213   24.8038 C   0  0  0  0  0  0  0  0  0  0  0  0
    7.8705   -3.0549   25.4042 C   0  0  0  0  0  0  0  0  0  0  0  0
    8.2831   -3.7304   26.6785 Cl  0  0  0  0  0  0  0  0  0  0  0  0
    8.2974   -1.7981   24.7055 C   0  0  0  0  0  0  0  0  0  0  0  0
    7.6571   -1.4078   23.4065 C   0  0  0  0  0  0  0  0  0  0  0  0
    8.0840   -0.1509   22.7077 C   0  0  0  0  0  0  0  0  0  0  0  0
    7.4437    0.2394   21.4086 C   0  0  0  0  0  0  0  0  0  0  0  0
    6.3765   -0.6270   20.8083 N   0  0  0  0  0  0  0  0  0  0  0  0
    8.6116    1.1277   22.1274 C   0  0  0  0  0  0  0  0  0  0  0  0
    8.1646    1.7645   20.8449 O   0  0  0  0  0  0  0  0  0  0  0  0
    9.6646    1.6579   23.0548 N   0  0  0  0  0  0  0  0  0  0  0  0
    9.7878    0.7069   24.2083 C   0  0  0  0  0  0  0  0  0  0  0  0
    8.8110   -0.4110   23.9937 C   0  0  0  0  0  0  0  0  0  0  0  0
   10.4555    2.9178   22.8625 C   0  0  0  0  0  0  0  0  0  0  0  0
   11.9173    2.8430   22.5349 C   0  0  0  0  0  0  0  0  0  0  0  0
   12.7083    4.1030   22.3426 N   0  0  0  0  0  0  0  0  0  0  0  0
   12.0373    5.4377   22.4780 C   0  0  0  0  0  0  0  0  0  0  0  0
   10.5754    5.5125   22.8056 C   0  0  0  0  0  0  0  0  0  0  0  0
    9.9044    6.8473   22.9410 C   0  0  0  0  0  0  0  0  0  0  0  0
    8.4426    6.9219   23.2686 C   0  0  0  0  0  0  0  0  0  0  0  0
    7.6517    5.6620   23.4609 C   0  0  0  0  0  0  0  0  0  0  0  0
    8.3227    4.3273   23.3255 C   0  0  0  0  0  0  0  0  0  0  0  0
    9.7845    4.2525   22.9979 C   0  0  0  0  0  0  0  0  0  0  0  0
    5.7362   -0.2366   19.5092 C   0  0  0  0  0  0  0  0  0  0  0  0
    4.5536    0.6861   19.5033 C   0  0  0  0  0  0  0  0  0  0  0  0
    3.5643    0.8585   20.6176 N   0  0  0  0  0  0  0  0  0  0  0  0
    2.5520    1.8774   20.1852 N   0  0  0  0  0  0  0  0  0  0  0  0
    2.9155    2.3347   18.8036 C   0  0  0  0  0  0  0  0  0  0  0  0
    4.1526    1.5984   18.3822 O   0  0  0  0  0  0  0  0  0  0  0  0
    8.5984   -1.5832   24.9052 C   0  0  0  0  0  0  0  0  0  0  0  0
    9.5018   -2.7772   24.8148 N   0  0  0  0  0  0  0  0  0  0  0  0
    9.1219   -3.6707   24.6516 H   0  0  0  0  0  0  0  0  0  0  0  0
   10.9840   -2.6100   24.9732 C   0  0  0  0  0  0  0  0  0  0  0  0
   11.6400   -2.9369   26.2819 C   0  0  0  0  0  0  0  0  0  0  0  0
   13.1222   -2.7697   26.4403 C   0  0  0  0  0  0  0  0  0  0  0  0
   13.9484   -2.2756   25.2900 N   0  0  0  0  0  0  0  0  0  0  0  0
   13.2924   -1.9487   23.9813 C   0  0  0  0  0  0  0  0  0  0  0  0
   11.8102   -2.1159   23.8229 N   0  0  0  0  0  0  0  0  0  0  0  0
  1  2  2  0  0  0
  2  3  1  0  0  0
  3  4  2  0  0  0
  4  5  1  0  0  0
  5  6  2  0  0  0
  6  7  1  0  0  0
  6  8  1  0  0  0
  8  9  2  0  0  0
  9 10  1  0  0  0
 10 11  1  0  0  0
 11 12  1  0  0  0
 12 28  1  0  0  0
 28 29  1  0  0  0
 29 30  2  0  0  0
 30 31  1  0  0  0
 31 32  2  0  0  0
 32 33  1  0  0  0
 10 13  1  0  0  0
 13 14  2  0  0  0
 13 15  1  0  0  0
 15 18  1  0  0  0
 18 19  2  0  0  0
 19 20  1  0  0  0
 20 21  2  0  0  0
 21 22  1  0  0  0
 22 23  2  0  0  0
 23 24  1  0  0  0
 24 25  2  0  0  0
 25 26  1  0  0  0
 26 27  2  0  0  0
 15 16  1  0  0  0
 16 17  1  0  0  0
 17 34  1  0  0  0
 34 35  1  0  0  0
 35 37  1  0  0  0
 37 38  2  0  0  0
 38 39  1  0  0  0
 39 40  2  0  0  0
 40 41  1  0  0  0
 41 42  2  0  0  0
 12  2  1  0  0  0
 33 29  1  0  0  0
 27 18  1  0  0  0
 42 37  1  0  0  0
  9  3  1  0  0  0
 17 10  1  0  0  0
 27 22  1  0  0  0
 35 36  1  0  0  0
M  END
> <minimizedAffinity>
-9.47565

> <CNNscore>
0.5734535456

> <CNNaffinity>
7.3527779579

> <CNN_VS>
4.2164764404

> <CNNaffinity_variance>
0.1445242763

$$$$



 42 48  0  0  0  0  0  0  0  0999 V2000
    7.6105   -3.4245   27.4552 O   0  0  0  0  0  0  0  0  0  0  0  0
    7.6715   -2.7946   26.0952 C   0  0  0  0  0  0  0  0  0  0  0  0
    8.9996   -2.4727   25.4766 C   0  0  0  0  0  0  0  0  0  0  0  0
   10.2667   -2.7807   26.2180 C   0  0  0  0  0  0  0  0  0  0  0  0
   11.5947   -2.4588   25.5994 C   0  0  0  0  0  0  0  0  0  0  0  0
   11.6556   -1.8289   24.2394 C   0  0  0  0  0  0  0  0  0  0  0  0
   13.1128   -1.6476   23.9327 Cl  0  0  0  0  0  0  0  0  0  0  0  0
   10.3886   -1.5210   23.4980 C   0  0  0  0  0  0  0  0  0  0  0  0
    9.0606   -1.8429   24.1166 C   0  0  0  0  0  0  0  0  0  0  0  0
    7.7934   -1.5349   23.3752 C   0  0  0  0  0  0  0  0  0  0  0  0
    6.4654   -1.8568   23.9939 C   0  0  0  0  0  0  0  0  0  0  0  0
    6.4045   -2.4867   25.3538 N   0  0  0  0  0  0  0  0  0  0  0  0
    6.6171   -1.1712   22.5185 C   0  0  0  0  0  0  0  0  0  0  0  0
    5.1733   -1.3735   22.8713 O   0  0  0  0  0  0  0  0  0  0  0  0
    7.1381   -0.5697   21.2470 N   0  0  0  0  0  0  0  0  0  0  0  0
    8.6364   -0.5616   21.3179 C   0  0  0  0  0  0  0  0  0  0  0  0
    9.0414   -1.1582   22.6332 C   0  0  0  0  0  0  0  0  0  0  0  0
    6.3067   -0.0648   20.1051 C   0  0  0  0  0  0  0  0  0  0  0  0
    6.3972   -0.7259   18.7617 C   0  0  0  0  0  0  0  0  0  0  0  0
    5.5659   -0.2211   17.6199 N   0  0  0  0  0  0  0  0  0  0  0  0
    4.6439    0.9449   17.8214 C   0  0  0  0  0  0  0  0  0  0  0  0
    4.5534    1.6060   19.1648 C   0  0  0  0  0  0  0  0  0  0  0  0
    3.6314    2.7720   19.3663 C   0  0  0  0  0  0  0  0  0  0  0  0
    3.5410    3.4330   20.7098 C   0  0  0  0  0  0  0  0  0  0  0  0
    4.3724    2.9281   21.8516 C   0  0  0  0  0  0  0  0  0  0  0  0
    5.2943    1.7622   21.6500 C   0  0  0  0  0  0  0  0  0  0  0  0
    5.3848    1.1011   20.3067 C   0  0  0  0  0  0  0  0  0  0  0  0
    5.0763   -2.8086   25.9724 C   0  0  0  0  0  0  0  0  0  0  0  0
    4.9487   -2.9114   27.4634 C   0  0  0  0  0  0  0  0  0  0  0  0
    4.7277   -4.1729   28.2444 N   0  0  0  0  0  0  0  0  0  0  0  0
    4.6620   -3.8120   29.6989 N   0  0  0  0  0  0  0  0  0  0  0  0
    4.8423   -2.3275   29.8168 C   0  0  0  0  0  0  0  0  0  0  0  0
    5.0195   -1.7710   28.4352 O   0  0  0  0  0  0  0  0  0  0  0  0
   10.4475   -1.3452   23.1208 C   0  0  0  0  0  0  0  0  0  0  0  0
   11.1454   -0.2310   23.8431 N   0  0  0  0  0  0  0  0  0  0  0  0
   11.7071   -0.4284   24.6271 H   0  0  0  0  0  0  0  0  0  0  0  0
   10.9876    1.1838   23.3707 C   0  0  0  0  0  0  0  0  0  0  0  0
    9.6602    1.8716   23.4927 C   0  0  0  0  0  0  0  0  0  0  0  0
    9.5024    3.2865   23.0203 C   0  0  0  0  0  0  0  0  0  0  0  0
   10.6720    4.0137   22.4260 N   0  0  0  0  0  0  0  0  0  0  0  0
   11.9995    3.3259   22.3040 C   0  0  0  0  0  0  0  0  0  0  0  0
   12.1573    1.9111   22.7764 N   0  0  0  0  0  0  0  0  0  0  0  0
  1  2  2  0  0  0
  2  3  1  0  0  0
  3  4  2  0  0  0
  4  5  1  0  0  0
  5  6  2  0  0  0
  6  7  1  0  0  0
  6  8  1  0  0  0
  8  9  2  0  0  0
  9 10  1  0  0  0
 10 11  1  0  0  0
 11 12  1  0  0  0
 12 28  1  0  0  0
 28 29  1  0  0  0
 29 30  2  0  0  0
 30 31  1  0  0  0
 31 32  2  0  0  0
 32 33  1  0  0  0
 10 13  1  0  0  0
 13 14  2  0  0  0
 13 15  1  0  0  0
 15 18  1  0  0  0
 18 19  2  0  0  0
 19 20  1  0  0  0
 20 21  2  0  0  0
 21 22  1  0  0  0
 22 23  2  0  0  0
 23 24  1  0  0  0
 24 25  2  0  0  0
 25 26  1  0  0  0
 26 27  2  0  0  0
 15 16  1  0  0  0
 16 17  1  0  0  0
 17 34  1  0  0  0
 34 35  1  0  0  0
 35 37  1  0  0  0
 37 38  2  0  0  0
 38 39  1  0  0  0
 39 40  2  0  0  0
 40 41  1  0  0  0
 41 42  2  0  0  0
 12  2  1  0  0  0
 33 29  1  0  0  0
 27 18  1  0  0  0
 42 37  1  0  0  0
  9  3  1  0  0  0
 17 10  1  0  0  0
 27 22  1  0  0  0
 35 36  1  0  0  0
M  END
> <minimizedAffinity>
-8.92207

> <CNNscore>
0.3502883315

> <CNNaffinity>
7.0008802414

> <CNN_VS>
2.4523267746

> <CNNaffinity_variance>
0.3093930781

$$$$



 42 48  0  0  0  0  0  0  0  0999 V2000
    7.9968   -3.4705   27.3686 O   0  0  0  0  0  0  0  0  0  0  0  0
    7.9988   -2.8141   26.0198 C   0  0  0  0  0  0  0  0  0  0  0  0
    9.2978   -2.4382   25.3706 C   0  0  0  0  0  0  0  0  0  0  0  0
   10.5947   -2.7186   26.0702 C   0  0  0  0  0  0  0  0  0  0  0  0
   11.8935   -2.3426   25.4210 C   0  0  0  0  0  0  0  0  0  0  0  0
   11.8956   -1.6863   24.0722 C   0  0  0  0  0  0  0  0  0  0  0  0
   13.3369   -1.4524   23.7285 Cl  0  0  0  0  0  0  0  0  0  0  0  0
   10.5987   -1.4059   23.3727 C   0  0  0  0  0  0  0  0  0  0  0  0
    9.2998   -1.7818   24.0219 C   0  0  0  0  0  0  0  0  0  0  0  0
    8.0028   -1.5014   23.3223 C   0  0  0  0  0  0  0  0  0  0  0  0
    6.7040   -1.8774   23.9715 C   0  0  0  0  0  0  0  0  0  0  0  0
    6.7019   -2.5337   25.3202 N   0  0  0  0  0  0  0  0  0  0  0  0
    6.7916   -1.1602   22.5059 C   0  0  0  0  0  0  0  0  0  0  0  0
    5.3656   -1.4155   22.8950 O   0  0  0  0  0  0  0  0  0  0  0  0
    7.2566   -0.5190   21.2321 N   0  0  0  0  0  0  0  0  0  0  0  0
    8.7553   -0.4638   21.2612 C   0  0  0  0  0  0  0  0  0  0  0  0
    9.2165   -1.0710   22.5530 C   0  0  0  0  0  0  0  0  0  0  0  0
    6.3773   -0.0204   20.1239 C   0  0  0  0  0  0  0  0  0  0  0  0
    6.4547   -0.6494   18.7645 C   0  0  0  0  0  0  0  0  0  0  0  0
    5.5754   -0.1509   17.6562 N   0  0  0  0  0  0  0  0  0  0  0  0
    4.6187    0.9768   17.9075 C   0  0  0  0  0  0  0  0  0  0  0  0
    4.5413    1.6059   19.2670 C   0  0  0  0  0  0  0  0  0  0  0  0
    3.5846    2.7336   19.5183 C   0  0  0  0  0  0  0  0  0  0  0  0
    3.5073    3.3626   20.8778 C   0  0  0  0  0  0  0  0  0  0  0  0
    4.3866    2.8640   21.9860 C   0  0  0  0  0  0  0  0  0  0  0  0
    5.3433    1.7363   21.7347 C   0  0  0  0  0  0  0  0  0  0  0  0
    5.4206    1.1073   20.3753 C   0  0  0  0  0  0  0  0  0  0  0  0
    5.4029   -2.9097   25.9694 C   0  0  0  0  0  0  0  0  0  0  0  0
    4.8657   -4.3023   25.8210 C   0  0  0  0  0  0  0  0  0  0  0  0
    5.5740   -5.4564   25.1758 N   0  0  0  0  0  0  0  0  0  0  0  0
    4.6719   -6.6526   25.2477 N   0  0  0  0  0  0  0  0  0  0  0  0
    3.4060   -6.2379   25.9374 C   0  0  0  0  0  0  0  0  0  0  0  0
    3.5259   -4.7853   26.2917 O   0  0  0  0  0  0  0  0  0  0  0  0
   10.6412   -1.2213   22.9974 C   0  0  0  0  0  0  0  0  0  0  0  0
   11.3206   -0.1024   23.7299 N   0  0  0  0  0  0  0  0  0  0  0  0
   11.9241   -0.3012   24.4819 H   0  0  0  0  0  0  0  0  0  0  0  0
   11.0805    1.3193   23.3167 C   0  0  0  0  0  0  0  0  0  0  0  0
    9.7284    1.9389   23.5113 C   0  0  0  0  0  0  0  0  0  0  0  0
    9.4884    3.3607   23.0980 C   0  0  0  0  0  0  0  0  0  0  0  0
   10.6005    4.1630   22.4902 N   0  0  0  0  0  0  0  0  0  0  0  0
   11.9526    3.5435   22.2955 C   0  0  0  0  0  0  0  0  0  0  0  0
   12.1926    2.1217   22.7087 N   0  0  0  0  0  0  0  0  0  0  0  0
  1  2  2  0  0  0
  2  3  1  0  0  0
  3  4  2  0  0  0
  4  5  1  0  0  0
  5  6  2  0  0  0
  6  7  1  0  0  0
  6  8  1  0  0  0
  8  9  2  0  0  0
  9 10  1  0  0  0
 10 11  1  0  0  0
 11 12  1  0  0  0
 12 28  1  0  0  0
 28 29  1  0  0  0
 29 30  2  0  0  0
 30 31  1  0  0  0
 31 32  2  0  0  0
 32 33  1  0  0  0
 10 13  1  0  0  0
 13 14  2  0  0  0
 13 15  1  0  0  0
 15 18  1  0  0  0
 18 19  2  0  0  0
 19 20  1  0  0  0
 20 21  2  0  0  0
 21 22  1  0  0  0
 22 23  2  0  0  0
 23 24  1  0  0  0
 24 25  2  0  0  0
 25 26  1  0  0  0
 26 27  2  0  0  0
 15 16  1  0  0  0
 16 17  1  0  0  0
 17 34  1  0  0  0
 34 35  1  0  0  0
 35 37  1  0  0  0
 37 38  2  0  0  0
 38 39  1  0  0  0
 39 40  2  0  0  0
 40 41  1  0  0  0
 41 42  2  0  0  0
 12  2  1  0  0  0
 33 29  1  0  0  0
 27 18  1  0  0  0
 42 37  1  0  0  0
  9  3  1  0  0  0
 17 10  1  0  0  0
 27 22  1  0  0  0
 35 36  1  0  0  0
M  END
> <minimizedAffinity>
-9.23081

> <CNNscore>
0.3452074230

> <CNNaffinity>
7.0802812576

> <CNN_VS>
2.4441657066

> <CNNaffinity_variance>
0.3215924799

$$$$



 42 48  0  0  0  0  0  0  0  0999 V2000
    7.1024   -6.5098   24.7769 O   0  0  0  0  0  0  0  0  0  0  0  0
    7.0798   -5.1969   24.0518 C   0  0  0  0  0  0  0  0  0  0  0  0
    8.0709   -4.1277   24.4052 C   0  0  0  0  0  0  0  0  0  0  0  0
    9.0844   -4.3715   25.4837 C   0  0  0  0  0  0  0  0  0  0  0  0
   10.0754   -3.3023   25.8370 C   0  0  0  0  0  0  0  0  0  0  0  0
   10.0528   -1.9895   25.1119 C   0  0  0  0  0  0  0  0  0  0  0  0
   11.1592   -1.1695   25.7067 Cl  0  0  0  0  0  0  0  0  0  0  0  0
    9.0392   -1.7457   24.0334 C   0  0  0  0  0  0  0  0  0  0  0  0
    8.0482   -2.8148   23.6800 C   0  0  0  0  0  0  0  0  0  0  0  0
    7.0346   -2.5711   22.6015 C   0  0  0  0  0  0  0  0  0  0  0  0
    6.0436   -3.6402   22.2482 C   0  0  0  0  0  0  0  0  0  0  0  0
    6.0662   -4.9531   22.9733 N   0  0  0  0  0  0  0  0  0  0  0  0
    6.0849   -2.1849   21.5065 C   0  0  0  0  0  0  0  0  0  0  0  0
    4.9912   -3.0438   20.9443 O   0  0  0  0  0  0  0  0  0  0  0  0
    6.4211   -0.7890   21.0723 N   0  0  0  0  0  0  0  0  0  0  0  0
    7.5784   -0.3125   21.8990 C   0  0  0  0  0  0  0  0  0  0  0  0
    7.9576   -1.4139   22.8441 C   0  0  0  0  0  0  0  0  0  0  0  0
    5.7225   -0.0070   19.9997 C   0  0  0  0  0  0  0  0  0  0  0  0
    6.1987   -0.0904   18.5798 C   0  0  0  0  0  0  0  0  0  0  0  0
    5.5001    0.6916   17.5073 N   0  0  0  0  0  0  0  0  0  0  0  0
    4.3252    1.5570   17.8547 C   0  0  0  0  0  0  0  0  0  0  0  0
    3.8490    1.6404   19.2746 C   0  0  0  0  0  0  0  0  0  0  0  0
    2.6741    2.5059   19.6220 C   0  0  0  0  0  0  0  0  0  0  0  0
    2.1979    2.5893   21.0420 C   0  0  0  0  0  0  0  0  0  0  0  0
    2.8965    1.8073   22.1145 C   0  0  0  0  0  0  0  0  0  0  0  0
    4.0714    0.9419   21.7671 C   0  0  0  0  0  0  0  0  0  0  0  0
    4.5476    0.8584   20.3472 C   0  0  0  0  0  0  0  0  0  0  0  0
    5.0752   -6.0223   22.6199 C   0  0  0  0  0  0  0  0  0  0  0  0
    3.8033   -6.1547   23.4039 C   0  0  0  0  0  0  0  0  0  0  0  0
    2.5297   -6.7813   22.9187 N   0  0  0  0  0  0  0  0  0  0  0  0
    1.5209   -6.6977   24.0257 N   0  0  0  0  0  0  0  0  0  0  0  0
    2.1710   -6.0192   25.1950 C   0  0  0  0  0  0  0  0  0  0  0  0
    3.5815   -5.6837   24.8107 O   0  0  0  0  0  0  0  0  0  0  0  0
    9.0653   -1.3663   23.8544 C   0  0  0  0  0  0  0  0  0  0  0  0
    9.0495   -0.3278   24.9365 N   0  0  0  0  0  0  0  0  0  0  0  0
    9.8920   -0.0467   25.3613 H   0  0  0  0  0  0  0  0  0  0  0  0
    7.7503    0.2826   25.3715 C   0  0  0  0  0  0  0  0  0  0  0  0
    7.3833    1.6655   24.9212 C   0  0  0  0  0  0  0  0  0  0  0  0
    6.0840    2.2759   25.3562 C   0  0  0  0  0  0  0  0  0  0  0  0
    5.1516    1.5033   26.2415 N   0  0  0  0  0  0  0  0  0  0  0  0
    5.5185    0.1203   26.6917 C   0  0  0  0  0  0  0  0  0  0  0  0
    6.8178   -0.4900   26.2568 N   0  0  0  0  0  0  0  0  0  0  0  0
  1  2  2  0  0  0
  2  3  1  0  0  0
  3  4  2  0  0  0
  4  5  1  0  0  0
  5  6  2  0  0  0
  6  7  1  0  0  0
  6  8  1  0  0  0
  8  9  2  0  0  0
  9 10  1  0  0  0
 10 11  1  0  0  0
 11 12  1  0  0  0
 12 28  1  0  0  0
 28 29  1  0  0  0
 29 30  2  0  0  0
 30 31  1  0  0  0
 31 32  2  0  0  0
 32 33  1  0  0  0
 10 13  1  0  0  0
 13 14  2  0  0  0
 13 15  1  0  0  0
 15 18  1  0  0  0
 18 19  2  0  0  0
 19 20  1  0  0  0
 20 21  2  0  0  0
 21 22  1  0  0  0
 22 23  2  0  0  0
 23 24  1  0  0  0
 24 25  2  0  0  0
 25 26  1  0  0  0
 26 27  2  0  0  0
 15 16  1  0  0  0
 16 17  1  0  0  0
 17 34  1  0  0  0
 34 35  1  0  0  0
 35 37  1  0  0  0
 37 38  2  0  0  0
 38 39  1  0  0  0
 39 40  2  0  0  0
 40 41  1  0  0  0
 41 42  2  0  0  0
 12  2  1  0  0  0
 33 29  1  0  0  0
 27 18  1  0  0  0
 42 37  1  0  0  0
  9  3  1  0  0  0
 17 10  1  0  0  0
 27 22  1  0  0  0
 35 36  1  0  0  0
M  END
> <minimizedAffinity>
-7.99404

> <CNNscore>
0.3407451212

> <CNNaffinity>
6.7385954857

> <CNN_VS>
2.2961435318

> <CNNaffinity_variance>
0.3232211173

$$$$



 42 48  0  0  0  0  0  0  0  0999 V2000
    6.6808    4.2662   22.2274 O   0  0  0  0  0  0  0  0  0  0  0  0
    6.8532    2.8755   22.7626 C   0  0  0  0  0  0  0  0  0  0  0  0
    8.2268    2.2868   22.8922 C   0  0  0  0  0  0  0  0  0  0  0  0
    9.4279    3.0886   22.4867 C   0  0  0  0  0  0  0  0  0  0  0  0
   10.8013    2.4998   22.6164 C   0  0  0  0  0  0  0  0  0  0  0  0
   10.9738    1.1092   23.1516 C   0  0  0  0  0  0  0  0  0  0  0  0
   12.4503    0.8442   23.1460 Cl  0  0  0  0  0  0  0  0  0  0  0  0
    9.7727    0.3073   23.5570 C   0  0  0  0  0  0  0  0  0  0  0  0
    8.3992    0.8961   23.4274 C   0  0  0  0  0  0  0  0  0  0  0  0
    7.1981    0.0942   23.8329 C   0  0  0  0  0  0  0  0  0  0  0  0
    5.8246    0.6830   23.7032 C   0  0  0  0  0  0  0  0  0  0  0  0
    5.6522    2.0737   23.1681 N   0  0  0  0  0  0  0  0  0  0  0  0
    6.0969   -0.8227   24.2763 C   0  0  0  0  0  0  0  0  0  0  0  0
    4.6300   -0.5100   24.2624 O   0  0  0  0  0  0  0  0  0  0  0  0
    6.7202   -2.1073   24.7360 N   0  0  0  0  0  0  0  0  0  0  0  0
    8.2067   -1.9843   24.5768 C   0  0  0  0  0  0  0  0  0  0  0  0
    8.5020   -0.6236   24.0186 C   0  0  0  0  0  0  0  0  0  0  0  0
    5.9860   -3.3046   25.2626 C   0  0  0  0  0  0  0  0  0  0  0  0
    5.5875   -4.4098   24.3301 C   0  0  0  0  0  0  0  0  0  0  0  0
    4.8532   -5.6072   24.8567 N   0  0  0  0  0  0  0  0  0  0  0  0
    4.5176   -5.6992   26.3157 C   0  0  0  0  0  0  0  0  0  0  0  0
    4.9162   -4.5940   27.2482 C   0  0  0  0  0  0  0  0  0  0  0  0
    4.5805   -4.6861   28.7073 C   0  0  0  0  0  0  0  0  0  0  0  0
    4.9792   -3.5808   29.6398 C   0  0  0  0  0  0  0  0  0  0  0  0
    5.7134   -2.3835   29.1132 C   0  0  0  0  0  0  0  0  0  0  0  0
    6.0490   -2.2914   27.6541 C   0  0  0  0  0  0  0  0  0  0  0  0
    5.6504   -3.3966   26.7217 C   0  0  0  0  0  0  0  0  0  0  0  0
    4.2786    2.6624   23.0384 C   0  0  0  0  0  0  0  0  0  0  0  0
    3.5274    2.5361   21.7463 C   0  0  0  0  0  0  0  0  0  0  0  0
    2.1850    1.8916   21.5663 N   0  0  0  0  0  0  0  0  0  0  0  0
    1.8146    1.9892   20.1160 N   0  0  0  0  0  0  0  0  0  0  0  0
    2.9281    2.6942   19.3996 C   0  0  0  0  0  0  0  0  0  0  0  0
    3.9867    3.0322   20.4072 O   0  0  0  0  0  0  0  0  0  0  0  0
    9.8624   -0.0769   23.7018 C   0  0  0  0  0  0  0  0  0  0  0  0
   10.9930   -1.0123   23.3909 N   0  0  0  0  0  0  0  0  0  0  0  0
   11.3061   -1.1149   22.4631 H   0  0  0  0  0  0  0  0  0  0  0  0
   11.6467   -1.7915   24.4933 C   0  0  0  0  0  0  0  0  0  0  0  0
   10.9399   -2.9657   25.1030 C   0  0  0  0  0  0  0  0  0  0  0  0
   11.5936   -3.7449   26.2055 C   0  0  0  0  0  0  0  0  0  0  0  0
   12.9541   -3.3499   26.6983 N   0  0  0  0  0  0  0  0  0  0  0  0
   13.6610   -2.1757   26.0886 C   0  0  0  0  0  0  0  0  0  0  0  0
   13.0073   -1.3966   24.9862 N   0  0  0  0  0  0  0  0  0  0  0  0
  1  2  2  0  0  0
  2  3  1  0  0  0
  3  4  2  0  0  0
  4  5  1  0  0  0
  5  6  2  0  0  0
  6  7  1  0  0  0
  6  8  1  0  0  0
  8  9  2  0  0  0
  9 10  1  0  0  0
 10 11  1  0  0  0
 11 12  1  0  0  0
 12 28  1  0  0  0
 28 29  1  0  0  0
 29 30  2  0  0  0
 30 31  1  0  0  0
 31 32  2  0  0  0
 32 33  1  0  0  0
 10 13  1  0  0  0
 13 14  2  0  0  0
 13 15  1  0  0  0
 15 18  1  0  0  0
 18 19  2  0  0  0
 19 20  1  0  0  0
 20 21  2  0  0  0
 21 22  1  0  0  0
 22 23  2  0  0  0
 23 24  1  0  0  0
 24 25  2  0  0  0
 25 26  1  0  0  0
 26 27  2  0  0  0
 15 16  1  0  0  0
 16 17  1  0  0  0
 17 34  1  0  0  0
 34 35  1  0  0  0
 35 37  1  0  0  0
 37 38  2  0  0  0
 38 39  1  0  0  0
 39 40  2  0  0  0
 40 41  1  0  0  0
 41 42  2  0  0  0
 12  2  1  0  0  0
 33 29  1  0  0  0
 27 18  1  0  0  0
 42 37  1  0  0  0
  9  3  1  0  0  0
 17 10  1  0  0  0
 27 22  1  0  0  0
 35 36  1  0  0  0
M  END
> <minimizedAffinity>
-8.09563

> <CNNscore>
0.2703510821

> <CNNaffinity>
7.0327286720

> <CNN_VS>
1.9013057947

> <CNNaffinity_variance>
0.1382398307

$$$$



 42 48  0  0  0  0  0  0  0  0999 V2000
   11.6501   -0.9250   25.5864 O   0  0  0  0  0  0  0  0  0  0  0  0
   10.3904   -0.8866   24.7729 C   0  0  0  0  0  0  0  0  0  0  0  0
    9.1716   -1.6241   25.2427 C   0  0  0  0  0  0  0  0  0  0  0  0
    9.2124   -2.3998   26.5258 C   0  0  0  0  0  0  0  0  0  0  0  0
    7.9936   -3.1372   26.9955 C   0  0  0  0  0  0  0  0  0  0  0  0
    6.7339   -3.0989   26.1821 C   0  0  0  0  0  0  0  0  0  0  0  0
    5.7329   -3.9282   26.9308 Cl  0  0  0  0  0  0  0  0  0  0  0  0
    6.6930   -2.3232   24.8990 C   0  0  0  0  0  0  0  0  0  0  0  0
    7.9119   -1.5858   24.4293 C   0  0  0  0  0  0  0  0  0  0  0  0
    7.8710   -0.8100   23.1460 C   0  0  0  0  0  0  0  0  0  0  0  0
    9.0899   -0.0726   22.6764 C   0  0  0  0  0  0  0  0  0  0  0  0
   10.3495   -0.1109   23.4898 N   0  0  0  0  0  0  0  0  0  0  0  0
    7.6808   -0.0806   21.8492 C   0  0  0  0  0  0  0  0  0  0  0  0
    8.7169    0.7384   21.1380 O   0  0  0  0  0  0  0  0  0  0  0  0
    6.2726   -0.3141   21.3882 N   0  0  0  0  0  0  0  0  0  0  0  0
    5.5925   -1.1878   22.4003 C   0  0  0  0  0  0  0  0  0  0  0  0
    6.5804   -1.4942   23.4866 C   0  0  0  0  0  0  0  0  0  0  0  0
    5.6533    0.2304   20.1353 C   0  0  0  0  0  0  0  0  0  0  0  0
    6.1958   -0.1697   18.7954 C   0  0  0  0  0  0  0  0  0  0  0  0
    5.5765    0.3749   17.5424 N   0  0  0  0  0  0  0  0  0  0  0  0
    4.4146    1.3195   17.6295 C   0  0  0  0  0  0  0  0  0  0  0  0
    3.8720    1.7196   18.9695 C   0  0  0  0  0  0  0  0  0  0  0  0
    2.7101    2.6644   19.0565 C   0  0  0  0  0  0  0  0  0  0  0  0
    2.1676    3.0644   20.3965 C   0  0  0  0  0  0  0  0  0  0  0  0
    2.7869    2.5199   21.6494 C   0  0  0  0  0  0  0  0  0  0  0  0
    3.9488    1.5752   21.5623 C   0  0  0  0  0  0  0  0  0  0  0  0
    4.4913    1.1751   20.2224 C   0  0  0  0  0  0  0  0  0  0  0  0
   11.5684    0.6266   23.0200 C   0  0  0  0  0  0  0  0  0  0  0  0
   11.5293    2.1180   22.8651 C   0  0  0  0  0  0  0  0  0  0  0  0
   10.3534    3.0037   23.1525 N   0  0  0  0  0  0  0  0  0  0  0  0
   10.7566    4.4187   22.8606 N   0  0  0  0  0  0  0  0  0  0  0  0
   12.1818    4.4075   22.3928 C   0  0  0  0  0  0  0  0  0  0  0  0
   12.6593    2.9856   22.3956 O   0  0  0  0  0  0  0  0  0  0  0  0
    6.3228   -2.3369   24.7005 C   0  0  0  0  0  0  0  0  0  0  0  0
    5.4678   -3.5648   24.5936 N   0  0  0  0  0  0  0  0  0  0  0  0
    4.6707   -3.6607   25.1634 H   0  0  0  0  0  0  0  0  0  0  0  0
    5.8272   -4.6464   23.6186 C   0  0  0  0  0  0  0  0  0  0  0  0
    6.7954   -5.7216   24.0144 C   0  0  0  0  0  0  0  0  0  0  0  0
    7.1548   -6.8033   23.0393 C   0  0  0  0  0  0  0  0  0  0  0  0
    6.5459   -6.8099   21.6685 N   0  0  0  0  0  0  0  0  0  0  0  0
    5.5777   -5.7347   21.2727 C   0  0  0  0  0  0  0  0  0  0  0  0
    5.2184   -4.6531   22.2477 N   0  0  0  0  0  0  0  0  0  0  0  0
  1  2  2  0  0  0
  2  3  1  0  0  0
  3  4  2  0  0  0
  4  5  1  0  0  0
  5  6  2  0  0  0
  6  7  1  0  0  0
  6  8  1  0  0  0
  8  9  2  0  0  0
  9 10  1  0  0  0
 10 11  1  0  0  0
 11 12  1  0  0  0
 12 28  1  0  0  0
 28 29  1  0  0  0
 29 30  2  0  0  0
 30 31  1  0  0  0
 31 32  2  0  0  0
 32 33  1  0  0  0
 10 13  1  0  0  0
 13 14  2  0  0  0
 13 15  1  0  0  0
 15 18  1  0  0  0
 18 19  2  0  0  0
 19 20  1  0  0  0
 20 21  2  0  0  0
 21 22  1  0  0  0
 22 23  2  0  0  0
 23 24  1  0  0  0
 24 25  2  0  0  0
 25 26  1  0  0  0
 26 27  2  0  0  0
 15 16  1  0  0  0
 16 17  1  0  0  0
 17 34  1  0  0  0
 34 35  1  0  0  0
 35 37  1  0  0  0
 37 38  2  0  0  0
 38 39  1  0  0  0
 39 40  2  0  0  0
 40 41  1  0  0  0
 41 42  2  0  0  0
 12  2  1  0  0  0
 33 29  1  0  0  0
 27 18  1  0  0  0
 42 37  1  0  0  0
  9  3  1  0  0  0
 17 10  1  0  0  0
 27 22  1  0  0  0
 35 36  1  0  0  0
M  END
> <minimizedAffinity>
-8.89813

> <CNNscore>
0.2676524222

> <CNNaffinity>
6.8846993446

> <CNN_VS>
1.8427064419

> <CNNaffinity_variance>
0.3542538583

$$$$



 42 48  0  0  0  0  0  0  0  0999 V2000
   12.3651   -0.4371   25.2556 O   0  0  0  0  0  0  0  0  0  0  0  0
   11.0527   -0.4878   24.5310 C   0  0  0  0  0  0  0  0  0  0  0  0
    9.9336   -1.3323   25.0644 C   0  0  0  0  0  0  0  0  0  0  0  0
   10.1270   -2.1262   26.3223 C   0  0  0  0  0  0  0  0  0  0  0  0
    9.0080   -2.9707   26.8556 C   0  0  0  0  0  0  0  0  0  0  0  0
    7.6955   -3.0213   26.1311 C   0  0  0  0  0  0  0  0  0  0  0  0
    6.8200   -3.9446   26.9256 Cl  0  0  0  0  0  0  0  0  0  0  0  0
    7.5022   -2.2275   24.8732 C   0  0  0  0  0  0  0  0  0  0  0  0
    8.6212   -1.3830   24.3398 C   0  0  0  0  0  0  0  0  0  0  0  0
    8.4279   -0.5891   23.0819 C   0  0  0  0  0  0  0  0  0  0  0  0
    9.5469    0.2554   22.5485 C   0  0  0  0  0  0  0  0  0  0  0  0
   10.8594    0.3061   23.2731 N   0  0  0  0  0  0  0  0  0  0  0  0
    8.0888    0.1464   21.8193 C   0  0  0  0  0  0  0  0  0  0  0  0
    9.0027    1.0617   21.0596 O   0  0  0  0  0  0  0  0  0  0  0  0
    6.6755   -0.1940   21.4498 N   0  0  0  0  0  0  0  0  0  0  0  0
    6.1410   -1.1400   22.4840 C   0  0  0  0  0  0  0  0  0  0  0  0
    7.2241   -1.3841   23.4926 C   0  0  0  0  0  0  0  0  0  0  0  0
    5.9279    0.3210   20.2557 C   0  0  0  0  0  0  0  0  0  0  0  0
    6.2920   -0.1545   18.8805 C   0  0  0  0  0  0  0  0  0  0  0  0
    5.5444    0.3605   17.6864 N   0  0  0  0  0  0  0  0  0  0  0  0
    4.4327    1.3511   17.8676 C   0  0  0  0  0  0  0  0  0  0  0  0
    4.0686    1.8266   19.2429 C   0  0  0  0  0  0  0  0  0  0  0  0
    2.9568    2.8173   19.4241 C   0  0  0  0  0  0  0  0  0  0  0  0
    2.5927    3.2927   20.7993 C   0  0  0  0  0  0  0  0  0  0  0  0
    3.3403    2.7777   21.9933 C   0  0  0  0  0  0  0  0  0  0  0  0
    4.4521    1.7871   21.8121 C   0  0  0  0  0  0  0  0  0  0  0  0
    4.8162    1.3116   20.4370 C   0  0  0  0  0  0  0  0  0  0  0  0
   11.9784    1.1507   22.7397 C   0  0  0  0  0  0  0  0  0  0  0  0
   11.8235    2.6407   22.6647 C   0  0  0  0  0  0  0  0  0  0  0  0
   12.8804    3.6168   22.2402 N   0  0  0  0  0  0  0  0  0  0  0  0
   12.2945    4.9956   22.3141 N   0  0  0  0  0  0  0  0  0  0  0  0
   10.8755    4.8718   22.7844 C   0  0  0  0  0  0  0  0  0  0  0  0
   10.5844    3.4163   23.0010 O   0  0  0  0  0  0  0  0  0  0  0  0
    7.1213   -2.2681   24.7001 C   0  0  0  0  0  0  0  0  0  0  0  0
    6.1257   -3.3897   24.7261 N   0  0  0  0  0  0  0  0  0  0  0  0
    5.3819   -3.3728   25.3710 H   0  0  0  0  0  0  0  0  0  0  0  0
    6.2631   -4.5370   23.7698 C   0  0  0  0  0  0  0  0  0  0  0  0
    5.5186   -4.5212   22.4676 C   0  0  0  0  0  0  0  0  0  0  0  0
    5.6561   -5.6686   21.5112 C   0  0  0  0  0  0  0  0  0  0  0  0
    6.5380   -6.8316   21.8569 N   0  0  0  0  0  0  0  0  0  0  0  0
    7.2824   -6.8474   23.1590 C   0  0  0  0  0  0  0  0  0  0  0  0
    7.1450   -5.7001   24.1154 N   0  0  0  0  0  0  0  0  0  0  0  0
  1  2  2  0  0  0
  2  3  1  0  0  0
  3  4  2  0  0  0
  4  5  1  0  0  0
  5  6  2  0  0  0
  6  7  1  0  0  0
  6  8  1  0  0  0
  8  9  2  0  0  0
  9 10  1  0  0  0
 10 11  1  0  0  0
 11 12  1  0  0  0
 12 28  1  0  0  0
 28 29  1  0  0  0
 29 30  2  0  0  0
 30 31  1  0  0  0
 31 32  2  0  0  0
 32 33  1  0  0  0
 10 13  1  0  0  0
 13 14  2  0  0  0
 13 15  1  0  0  0
 15 18  1  0  0  0
 18 19  2  0  0  0
 19 20  1  0  0  0
 20 21  2  0  0  0
 21 22  1  0  0  0
 22 23  2  0  0  0
 23 24  1  0  0  0
 24 25  2  0  0  0
 25 26  1  0  0  0
 26 27  2  0  0  0
 15 16  1  0  0  0
 16 17  1  0  0  0
 17 34  1  0  0  0
 34 35  1  0  0  0
 35 37  1  0  0  0
 37 38  2  0  0  0
 38 39  1  0  0  0
 39 40  2  0  0  0
 40 41  1  0  0  0
 41 42  2  0  0  0
 12  2  1  0  0  0
 33 29  1  0  0  0
 27 18  1  0  0  0
 42 37  1  0  0  0
  9  3  1  0  0  0
 17 10  1  0  0  0
 27 22  1  0  0  0
 35 36  1  0  0  0
M  END
> <minimizedAffinity>
-8.93073

> <CNNscore>
0.2509938776

> <CNNaffinity>
6.9040131569

> <CNN_VS>
1.7328649759

> <CNNaffinity_variance>
0.4016772807

$$$$



 42 48  0  0  0  0  0  0  0  0999 V2000
    8.1368    4.9914   23.0139 O   0  0  0  0  0  0  0  0  0  0  0  0
    8.0551    3.5289   23.3373 C   0  0  0  0  0  0  0  0  0  0  0  0
    9.2715    2.6617   23.2014 C   0  0  0  0  0  0  0  0  0  0  0  0
   10.5694    3.2568   22.7421 C   0  0  0  0  0  0  0  0  0  0  0  0
   11.7857    2.3896   22.6061 C   0  0  0  0  0  0  0  0  0  0  0  0
   11.7040    0.9271   22.9295 C   0  0  0  0  0  0  0  0  0  0  0  0
   13.0769    0.3730   22.6883 Cl  0  0  0  0  0  0  0  0  0  0  0  0
   10.4060    0.3319   23.3888 C   0  0  0  0  0  0  0  0  0  0  0  0
    9.1897    1.1992   23.5247 C   0  0  0  0  0  0  0  0  0  0  0  0
    7.8917    0.6041   23.9841 C   0  0  0  0  0  0  0  0  0  0  0  0
    6.6754    1.4713   24.1200 C   0  0  0  0  0  0  0  0  0  0  0  0
    6.7571    2.9338   23.7966 N   0  0  0  0  0  0  0  0  0  0  0  0
    6.6693   -0.1285   24.4522 C   0  0  0  0  0  0  0  0  0  0  0  0
    5.3139    0.4728   24.6791 O   0  0  0  0  0  0  0  0  0  0  0  0
    7.0401   -1.5679   24.6535 N   0  0  0  0  0  0  0  0  0  0  0  0
    8.4917   -1.7250   24.3099 C   0  0  0  0  0  0  0  0  0  0  0  0
    9.0180   -0.3827   23.8961 C   0  0  0  0  0  0  0  0  0  0  0  0
    6.1207   -2.6587   25.1171 C   0  0  0  0  0  0  0  0  0  0  0  0
    5.3371   -2.4906   26.3850 C   0  0  0  0  0  0  0  0  0  0  0  0
    4.4177   -3.5814   26.8486 N   0  0  0  0  0  0  0  0  0  0  0  0
    4.2820   -4.8402   26.0443 C   0  0  0  0  0  0  0  0  0  0  0  0
    5.0658   -5.0083   24.7764 C   0  0  0  0  0  0  0  0  0  0  0  0
    4.9301   -6.2672   23.9721 C   0  0  0  0  0  0  0  0  0  0  0  0
    5.7139   -6.4352   22.7042 C   0  0  0  0  0  0  0  0  0  0  0  0
    6.6332   -5.3444   22.2407 C   0  0  0  0  0  0  0  0  0  0  0  0
    6.7688   -4.0856   23.0450 C   0  0  0  0  0  0  0  0  0  0  0  0
    5.9852   -3.9175   24.3128 C   0  0  0  0  0  0  0  0  0  0  0  0
    5.5408    3.8011   23.9326 C   0  0  0  0  0  0  0  0  0  0  0  0
    4.5401    3.8696   22.8173 C   0  0  0  0  0  0  0  0  0  0  0  0
    4.7939    3.5153   21.3820 N   0  0  0  0  0  0  0  0  0  0  0  0
    3.5206    3.7312   20.6191 N   0  0  0  0  0  0  0  0  0  0  0  0
    2.4798    4.2190   21.5829 C   0  0  0  0  0  0  0  0  0  0  0  0
    3.1099    4.3046   22.9415 O   0  0  0  0  0  0  0  0  0  0  0  0
   10.4239   -0.0802   23.4694 C   0  0  0  0  0  0  0  0  0  0  0  0
   11.5123    0.0291   24.4957 N   0  0  0  0  0  0  0  0  0  0  0  0
   11.9212    0.9037   24.6882 H   0  0  0  0  0  0  0  0  0  0  0  0
   11.9776   -1.1939   25.2287 C   0  0  0  0  0  0  0  0  0  0  0  0
   10.9883   -2.2437   25.6399 C   0  0  0  0  0  0  0  0  0  0  0  0
   11.4537   -3.4668   26.3730 C   0  0  0  0  0  0  0  0  0  0  0  0
   12.9085   -3.6402   26.6947 N   0  0  0  0  0  0  0  0  0  0  0  0
   13.8978   -2.5904   26.2835 C   0  0  0  0  0  0  0  0  0  0  0  0
   13.4325   -1.3674   25.5505 N   0  0  0  0  0  0  0  0  0  0  0  0
  1  2  2  0  0  0
  2  3  1  0  0  0
  3  4  2  0  0  0
  4  5  1  0  0  0
  5  6  2  0  0  0
  6  7  1  0  0  0
  6  8  1  0  0  0
  8  9  2  0  0  0
  9 10  1  0  0  0
 10 11  1  0  0  0
 11 12  1  0  0  0
 12 28  1  0  0  0
 28 29  1  0  0  0
 29 30  2  0  0  0
 30 31  1  0  0  0
 31 32  2  0  0  0
 32 33  1  0  0  0
 10 13  1  0  0  0
 13 14  2  0  0  0
 13 15  1  0  0  0
 15 18  1  0  0  0
 18 19  2  0  0  0
 19 20  1  0  0  0
 20 21  2  0  0  0
 21 22  1  0  0  0
 22 23  2  0  0  0
 23 24  1  0  0  0
 24 25  2  0  0  0
 25 26  1  0  0  0
 26 27  2  0  0  0
 15 16  1  0  0  0
 16 17  1  0  0  0
 17 34  1  0  0  0
 34 35  1  0  0  0
 35 37  1  0  0  0
 37 38  2  0  0  0
 38 39  1  0  0  0
 39 40  2  0  0  0
 40 41  1  0  0  0
 41 42  2  0  0  0
 12  2  1  0  0  0
 33 29  1  0  0  0
 27 18  1  0  0  0
 42 37  1  0  0  0
  9  3  1  0  0  0
 17 10  1  0  0  0
 27 22  1  0  0  0
 35 36  1  0  0  0
M  END
> <minimizedAffinity>
-8.38144

> <CNNscore>
0.2410349846

> <CNNaffinity>
6.8204026222

> <CNN_VS>
1.6439555883

> <CNNaffinity_variance>
0.8674713373

$$$$
