


 39 45  0  0  0  0  0  0  0  0999 V2000
    9.2917   -0.9580   23.5156 C   0  0  0  0  0  0  0  0  0  0  0  0
    8.1011   -1.3364   22.6853 C   0  0  0  0  0  0  0  0  0  0  0  0
    7.7225   -0.2529   21.7195 C   0  0  0  0  0  0  0  0  0  0  0  0
    6.5297   -0.7225   20.9404 N   0  0  0  0  0  0  0  0  0  0  0  0
    6.1713   -2.0962   21.4247 C   0  0  0  0  0  0  0  0  0  0  0  0
    5.0403   -2.9420   20.9194 O   0  0  0  0  0  0  0  0  0  0  0  0
    7.1425   -2.4756   22.5031 C   0  0  0  0  0  0  0  0  0  0  0  0
    6.1149   -3.5281   22.2096 C   0  0  0  0  0  0  0  0  0  0  0  0
    6.1256   -4.8199   22.9720 N   0  0  0  0  0  0  0  0  0  0  0  0
    7.1638   -5.0591   24.0278 C   0  0  0  0  0  0  0  0  0  0  0  0
    7.1744   -6.3509   24.7902 O   0  0  0  0  0  0  0  0  0  0  0  0
    8.1914   -4.0065   24.3214 C   0  0  0  0  0  0  0  0  0  0  0  0
    9.2296   -4.2458   25.3772 C   0  0  0  0  0  0  0  0  0  0  0  0
   10.2572   -3.1932   25.6707 C   0  0  0  0  0  0  0  0  0  0  0  0
   10.2466   -1.9014   24.9083 C   0  0  0  0  0  0  0  0  0  0  0  0
   11.2742   -0.8488   25.2019 Cl  0  0  0  0  0  0  0  0  0  0  0  0
    9.2083   -1.6622   23.8525 C   0  0  0  0  0  0  0  0  0  0  0  0
    8.1808   -2.7148   23.5590 C   0  0  0  0  0  0  0  0  0  0  0  0
    5.8201    0.0465   19.8657 C   0  0  0  0  0  0  0  0  0  0  0  0
    6.3256    0.0034   18.4543 C   0  0  0  0  0  0  0  0  0  0  0  0
    5.6159    0.7724   17.3796 N   0  0  0  0  0  0  0  0  0  0  0  0
    4.4007    1.5846   17.7165 C   0  0  0  0  0  0  0  0  0  0  0  0
    3.8951    1.6277   19.1281 C   0  0  0  0  0  0  0  0  0  0  0  0
    2.6798    2.4399   19.4650 C   0  0  0  0  0  0  0  0  0  0  0  0
    2.1743    2.4830   20.8766 C   0  0  0  0  0  0  0  0  0  0  0  0
    2.8840    1.7140   21.9512 C   0  0  0  0  0  0  0  0  0  0  0  0
    4.0992    0.9018   21.6143 C   0  0  0  0  0  0  0  0  0  0  0  0
    4.6048    0.8587   20.2028 C   0  0  0  0  0  0  0  0  0  0  0  0
    5.0979   -5.8725   22.6785 C   0  0  0  0  0  0  0  0  0  0  0  0
    3.8713   -5.9825   23.5347 C   0  0  0  0  0  0  0  0  0  0  0  0
    3.9776   -6.5171   24.9321 N   0  0  0  0  0  0  0  0  0  0  0  0
    4.1577   -7.9564   25.3141 C   0  0  0  0  0  0  0  0  0  0  0  0
    4.2139   -8.0351   26.8110 C   0  0  0  0  0  0  0  0  0  0  0  0
    4.0685   -6.6445   27.3541 C   0  0  0  0  0  0  0  0  0  0  0  0
    3.9416   -5.3546   28.1091 C   0  0  0  0  0  0  0  0  0  0  0  0
    4.0693   -6.1002   29.4045 O   0  0  0  0  0  0  0  0  0  0  0  0
    4.1963   -7.3901   28.6494 C   0  0  0  0  0  0  0  0  0  0  0  0
    3.9225   -5.7063   26.1929 C   0  0  0  0  0  0  0  0  0  0  0  0
    4.0329   -7.1947   24.1717 H   0  0  0  0  0  0  0  0  0  0  0  0
  2  1  1  0  0  0
  2  3  1  0  0  0
  3  4  1  0  0  0
  4 19  1  0  0  0
 19 20  2  0  0  0
 20 21  1  0  0  0
 21 22  2  0  0  0
 22 23  1  0  0  0
 23 24  2  0  0  0
 24 25  1  0  0  0
 25 26  2  0  0  0
 26 27  1  0  0  0
 27 28  2  0  0  0
  4  5  1  0  0  0
  5  6  2  0  0  0
  5  7  1  0  0  0
  7  8  1  0  0  0
  8  9  1  0  0  0
  9 29  1  0  0  0
 29 30  1  0  0  0
 31 30  1  0  0  0
 31 32  1  0  0  0
 32 33  1  0  0  0
 33 34  1  0  0  0
 34 35  1  0  0  0
 35 36  1  0  0  0
 36 37  1  0  0  0
 34 38  1  0  0  0
  9 10  1  0  0  0
 10 11  2  0  0  0
 10 12  1  0  0  0
 12 13  2  0  0  0
 13 14  1  0  0  0
 14 15  2  0  0  0
 15 16  1  0  0  0
 15 17  1  0  0  0
 17 18  2  0  0  0
  7  2  1  0  0  0
 38 31  1  0  0  0
 18 12  1  0  0  0
 28 19  1  0  0  0
 18  7  1  0  0  0
 28 23  1  0  0  0
 37 34  1  0  0  0
 31 39  1  0  0  0
M  CHG 1  31   1
M  END
> <minimizedAffinity>
-8.50528

> <CNNscore>
0.5245428681

> <CNNaffinity>
6.6624517441

> <CNN_VS>
3.4947414398

> <CNNaffinity_variance>
0.0283934120

$$$$



 39 45  0  0  0  0  0  0  0  0999 V2000
   10.5544   -1.3243   22.7667 C   0  0  0  0  0  0  0  0  0  0  0  0
    9.0633   -1.1923   22.6708 C   0  0  0  0  0  0  0  0  0  0  0  0
    8.6336   -0.6176   21.3536 C   0  0  0  0  0  0  0  0  0  0  0  0
    7.1364   -0.5254   21.3544 N   0  0  0  0  0  0  0  0  0  0  0  0
    6.6409   -1.0432   22.6721 C   0  0  0  0  0  0  0  0  0  0  0  0
    5.2063   -1.1331   23.1009 O   0  0  0  0  0  0  0  0  0  0  0  0
    7.8317   -1.4554   23.4857 C   0  0  0  0  0  0  0  0  0  0  0  0
    6.5179   -1.6628   24.1790 C   0  0  0  0  0  0  0  0  0  0  0  0
    6.4832   -2.2372   25.5643 N   0  0  0  0  0  0  0  0  0  0  0  0
    7.7625   -2.6041   26.2562 C   0  0  0  0  0  0  0  0  0  0  0  0
    7.7278   -3.1785   27.6414 O   0  0  0  0  0  0  0  0  0  0  0  0
    9.0764   -2.3967   25.5629 C   0  0  0  0  0  0  0  0  0  0  0  0
   10.3556   -2.7637   26.2549 C   0  0  0  0  0  0  0  0  0  0  0  0
   11.6695   -2.5563   25.5616 C   0  0  0  0  0  0  0  0  0  0  0  0
   11.7041   -1.9820   24.1763 C   0  0  0  0  0  0  0  0  0  0  0  0
   13.0181   -1.7746   23.4830 Cl  0  0  0  0  0  0  0  0  0  0  0  0
   10.4249   -1.6150   23.4844 C   0  0  0  0  0  0  0  0  0  0  0  0
    9.1110   -1.8224   24.1777 C   0  0  0  0  0  0  0  0  0  0  0  0
    6.2844   -0.0066   20.2342 C   0  0  0  0  0  0  0  0  0  0  0  0
    6.3360   -0.6632   18.8866 C   0  0  0  0  0  0  0  0  0  0  0  0
    5.4840   -0.1444   17.7664 N   0  0  0  0  0  0  0  0  0  0  0  0
    4.5804    1.0311   17.9939 C   0  0  0  0  0  0  0  0  0  0  0  0
    4.5288    1.6877   19.3415 C   0  0  0  0  0  0  0  0  0  0  0  0
    3.6252    2.8633   19.5690 C   0  0  0  0  0  0  0  0  0  0  0  0
    3.5737    3.5198   20.9167 C   0  0  0  0  0  0  0  0  0  0  0  0
    4.4257    3.0010   22.0368 C   0  0  0  0  0  0  0  0  0  0  0  0
    5.3293    1.8255   21.8093 C   0  0  0  0  0  0  0  0  0  0  0  0
    5.3808    1.1689   20.4617 C   0  0  0  0  0  0  0  0  0  0  0  0
    5.1693   -2.4445   26.2575 C   0  0  0  0  0  0  0  0  0  0  0  0
    4.3826   -3.6983   26.0143 C   0  0  0  0  0  0  0  0  0  0  0  0
    4.9906   -4.8255   25.2336 N   0  0  0  0  0  0  0  0  0  0  0  0
    5.2199   -6.2211   25.7334 C   0  0  0  0  0  0  0  0  0  0  0  0
    5.8471   -7.0133   24.6247 C   0  0  0  0  0  0  0  0  0  0  0  0
    6.0054   -6.1073   23.4397 C   0  0  0  0  0  0  0  0  0  0  0  0
    6.2569   -5.3889   22.1473 C   0  0  0  0  0  0  0  0  0  0  0  0
    6.8327   -6.6441   21.5615 O   0  0  0  0  0  0  0  0  0  0  0  0
    6.5812   -7.3625   22.8541 C   0  0  0  0  0  0  0  0  0  0  0  0
    5.4761   -4.7552   23.8161 C   0  0  0  0  0  0  0  0  0  0  0  0
    4.7070   -5.0265   26.1925 H   0  0  0  0  0  0  0  0  0  0  0  0
  2  1  1  0  0  0
  2  3  1  0  0  0
  3  4  1  0  0  0
  4 19  1  0  0  0
 19 20  2  0  0  0
 20 21  1  0  0  0
 21 22  2  0  0  0
 22 23  1  0  0  0
 23 24  2  0  0  0
 24 25  1  0  0  0
 25 26  2  0  0  0
 26 27  1  0  0  0
 27 28  2  0  0  0
  4  5  1  0  0  0
  5  6  2  0  0  0
  5  7  1  0  0  0
  7  8  1  0  0  0
  8  9  1  0  0  0
  9 29  1  0  0  0
 29 30  1  0  0  0
 31 30  1  0  0  0
 31 32  1  0  0  0
 32 33  1  0  0  0
 33 34  1  0  0  0
 34 35  1  0  0  0
 35 36  1  0  0  0
 36 37  1  0  0  0
 34 38  1  0  0  0
  9 10  1  0  0  0
 10 11  2  0  0  0
 10 12  1  0  0  0
 12 13  2  0  0  0
 13 14  1  0  0  0
 14 15  2  0  0  0
 15 16  1  0  0  0
 15 17  1  0  0  0
 17 18  2  0  0  0
  7  2  1  0  0  0
 38 31  1  0  0  0
 18 12  1  0  0  0
 28 19  1  0  0  0
 18  7  1  0  0  0
 28 23  1  0  0  0
 37 34  1  0  0  0
 31 39  1  0  0  0
M  CHG 1  31   1
M  END
> <minimizedAffinity>
-9.25370

> <CNNscore>
0.4611779451

> <CNNaffinity>
6.9515848160

> <CNN_VS>
3.2059175968

> <CNNaffinity_variance>
0.0557235703

$$$$



 39 45  0  0  0  0  0  0  0  0999 V2000
   10.5231   -2.6860   26.1071 C   0  0  0  0  0  0  0  0  0  0  0  0
    9.2976   -1.8898   25.7690 C   0  0  0  0  0  0  0  0  0  0  0  0
    8.0671   -2.4487   26.4197 C   0  0  0  0  0  0  0  0  0  0  0  0
    6.9026   -1.5900   26.0240 N   0  0  0  0  0  0  0  0  0  0  0  0
    7.4135   -0.5003   25.1286 C   0  0  0  0  0  0  0  0  0  0  0  0
    6.5889    0.5842   24.5010 O   0  0  0  0  0  0  0  0  0  0  0  0
    8.8936   -0.6856   24.9710 C   0  0  0  0  0  0  0  0  0  0  0  0
    8.3429    0.4914   24.2218 C   0  0  0  0  0  0  0  0  0  0  0  0
    9.2584    1.3582   23.4090 N   0  0  0  0  0  0  0  0  0  0  0  0
   10.7245    1.0479   23.3453 C   0  0  0  0  0  0  0  0  0  0  0  0
   11.6399    1.9146   22.5324 O   0  0  0  0  0  0  0  0  0  0  0  0
   11.2753   -0.1292   24.0945 C   0  0  0  0  0  0  0  0  0  0  0  0
   12.7414   -0.4395   24.0308 C   0  0  0  0  0  0  0  0  0  0  0  0
   13.2921   -1.6165   24.7799 C   0  0  0  0  0  0  0  0  0  0  0  0
   12.3767   -2.4832   25.5928 C   0  0  0  0  0  0  0  0  0  0  0  0
   12.9275   -3.6603   26.3420 Cl  0  0  0  0  0  0  0  0  0  0  0  0
   10.9105   -2.1729   25.6565 C   0  0  0  0  0  0  0  0  0  0  0  0
   10.3598   -0.9959   24.9073 C   0  0  0  0  0  0  0  0  0  0  0  0
    5.4776   -1.7865   26.4489 C   0  0  0  0  0  0  0  0  0  0  0  0
    4.7509   -0.6882   27.1670 C   0  0  0  0  0  0  0  0  0  0  0  0
    3.3259   -0.8847   27.5920 N   0  0  0  0  0  0  0  0  0  0  0  0
    2.6275   -2.1794   27.2988 C   0  0  0  0  0  0  0  0  0  0  0  0
    3.3543   -3.2777   26.5807 C   0  0  0  0  0  0  0  0  0  0  0  0
    2.6558   -4.5725   26.2876 C   0  0  0  0  0  0  0  0  0  0  0  0
    3.3826   -5.6707   25.5695 C   0  0  0  0  0  0  0  0  0  0  0  0
    4.8076   -5.4742   25.1446 C   0  0  0  0  0  0  0  0  0  0  0  0
    5.5060   -4.1795   25.4377 C   0  0  0  0  0  0  0  0  0  0  0  0
    4.7793   -3.0813   26.1558 C   0  0  0  0  0  0  0  0  0  0  0  0
    8.7076    2.5353   22.6598 C   0  0  0  0  0  0  0  0  0  0  0  0
    8.2812    3.7655   23.4045 C   0  0  0  0  0  0  0  0  0  0  0  0
    9.0397    5.0479   23.2308 N   0  0  0  0  0  0  0  0  0  0  0  0
    8.5538    6.4171   23.6038 C   0  0  0  0  0  0  0  0  0  0  0  0
    9.6311    7.4016   23.2571 C   0  0  0  0  0  0  0  0  0  0  0  0
   10.7828    6.6409   22.6698 C   0  0  0  0  0  0  0  0  0  0  0  0
   12.0389    6.0902   22.0626 C   0  0  0  0  0  0  0  0  0  0  0  0
   12.6079    7.4758   21.9828 O   0  0  0  0  0  0  0  0  0  0  0  0
   11.3517    8.0265   22.5901 C   0  0  0  0  0  0  0  0  0  0  0  0
   10.4173    5.1862   22.6535 C   0  0  0  0  0  0  0  0  0  0  0  0
    8.1078    5.1129   23.6402 H   0  0  0  0  0  0  0  0  0  0  0  0
  2  1  1  0  0  0
  2  3  1  0  0  0
  3  4  1  0  0  0
  4 19  1  0  0  0
 19 20  2  0  0  0
 20 21  1  0  0  0
 21 22  2  0  0  0
 22 23  1  0  0  0
 23 24  2  0  0  0
 24 25  1  0  0  0
 25 26  2  0  0  0
 26 27  1  0  0  0
 27 28  2  0  0  0
  4  5  1  0  0  0
  5  6  2  0  0  0
  5  7  1  0  0  0
  7  8  1  0  0  0
  8  9  1  0  0  0
  9 29  1  0  0  0
 29 30  1  0  0  0
 31 30  1  0  0  0
 31 32  1  0  0  0
 32 33  1  0  0  0
 33 34  1  0  0  0
 34 35  1  0  0  0
 35 36  1  0  0  0
 36 37  1  0  0  0
 34 38  1  0  0  0
  9 10  1  0  0  0
 10 11  2  0  0  0
 10 12  1  0  0  0
 12 13  2  0  0  0
 13 14  1  0  0  0
 14 15  2  0  0  0
 15 16  1  0  0  0
 15 17  1  0  0  0
 17 18  2  0  0  0
  7  2  1  0  0  0
 38 31  1  0  0  0
 18 12  1  0  0  0
 28 19  1  0  0  0
 18  7  1  0  0  0
 28 23  1  0  0  0
 37 34  1  0  0  0
 31 39  1  0  0  0
M  CHG 1  31   1
M  END
> <minimizedAffinity>
-8.78542

> <CNNscore>
0.4526940882

> <CNNaffinity>
6.8061156273

> <CNN_VS>
3.0810883045

> <CNNaffinity_variance>
0.1444581747

$$$$



 39 45  0  0  0  0  0  0  0  0999 V2000
    7.2231   -3.4200   23.2209 C   0  0  0  0  0  0  0  0  0  0  0  0
    7.4272   -2.0894   22.5592 C   0  0  0  0  0  0  0  0  0  0  0  0
    6.3637   -1.7987   21.5421 C   0  0  0  0  0  0  0  0  0  0  0  0
    6.6530   -0.4557   20.9399 N   0  0  0  0  0  0  0  0  0  0  0  0
    7.8953    0.0836   21.5848 C   0  0  0  0  0  0  0  0  0  0  0  0
    8.5450    1.4013   21.2821 O   0  0  0  0  0  0  0  0  0  0  0  0
    8.3737   -0.9261   22.5857 C   0  0  0  0  0  0  0  0  0  0  0  0
    9.2303    0.3023   22.5010 C   0  0  0  0  0  0  0  0  0  0  0  0
   10.4425    0.4330   23.3749 N   0  0  0  0  0  0  0  0  0  0  0  0
   10.7981   -0.6646   24.3333 C   0  0  0  0  0  0  0  0  0  0  0  0
   12.0102   -0.5339   25.2071 O   0  0  0  0  0  0  0  0  0  0  0  0
    9.9414   -1.8931   24.4179 C   0  0  0  0  0  0  0  0  0  0  0  0
   10.2970   -2.9908   25.3764 C   0  0  0  0  0  0  0  0  0  0  0  0
    9.4404   -4.2192   25.4610 C   0  0  0  0  0  0  0  0  0  0  0  0
    8.2282   -4.3499   24.5872 C   0  0  0  0  0  0  0  0  0  0  0  0
    7.3716   -5.5784   24.6718 Cl  0  0  0  0  0  0  0  0  0  0  0  0
    7.8727   -3.2522   23.6287 C   0  0  0  0  0  0  0  0  0  0  0  0
    8.7293   -2.0238   23.5441 C   0  0  0  0  0  0  0  0  0  0  0  0
    5.8424    0.2279   19.8790 C   0  0  0  0  0  0  0  0  0  0  0  0
    6.2812    0.1697   18.4458 C   0  0  0  0  0  0  0  0  0  0  0  0
    5.4706    0.8534   17.3849 N   0  0  0  0  0  0  0  0  0  0  0  0
    4.2212    1.5953   17.7572 C   0  0  0  0  0  0  0  0  0  0  0  0
    3.7824    1.6535   19.1905 C   0  0  0  0  0  0  0  0  0  0  0  0
    2.5330    2.3954   19.5628 C   0  0  0  0  0  0  0  0  0  0  0  0
    2.0943    2.4536   20.9960 C   0  0  0  0  0  0  0  0  0  0  0  0
    2.9049    1.7699   22.0568 C   0  0  0  0  0  0  0  0  0  0  0  0
    4.1543    1.0281   21.6845 C   0  0  0  0  0  0  0  0  0  0  0  0
    4.5930    0.9698   20.2514 C   0  0  0  0  0  0  0  0  0  0  0  0
   11.2991    1.6615   23.2902 C   0  0  0  0  0  0  0  0  0  0  0  0
   11.1427    2.6069   22.1362 C   0  0  0  0  0  0  0  0  0  0  0  0
   10.9443    4.0721   22.3886 N   0  0  0  0  0  0  0  0  0  0  0  0
    9.7521    4.6995   23.0482 C   0  0  0  0  0  0  0  0  0  0  0  0
    9.9741    6.1823   23.0929 C   0  0  0  0  0  0  0  0  0  0  0  0
   11.3035    6.4713   22.4609 C   0  0  0  0  0  0  0  0  0  0  0  0
   12.5853    6.9859   21.8763 C   0  0  0  0  0  0  0  0  0  0  0  0
   12.1813    8.3880   22.2244 O   0  0  0  0  0  0  0  0  0  0  0  0
   10.8994    7.8733   22.8091 C   0  0  0  0  0  0  0  0  0  0  0  0
   11.9030    5.1671   22.0256 C   0  0  0  0  0  0  0  0  0  0  0  0
   10.2001    3.4447   22.6935 H   0  0  0  0  0  0  0  0  0  0  0  0
  2  1  1  0  0  0
  2  3  1  0  0  0
  3  4  1  0  0  0
  4 19  1  0  0  0
 19 20  2  0  0  0
 20 21  1  0  0  0
 21 22  2  0  0  0
 22 23  1  0  0  0
 23 24  2  0  0  0
 24 25  1  0  0  0
 25 26  2  0  0  0
 26 27  1  0  0  0
 27 28  2  0  0  0
  4  5  1  0  0  0
  5  6  2  0  0  0
  5  7  1  0  0  0
  7  8  1  0  0  0
  8  9  1  0  0  0
  9 29  1  0  0  0
 29 30  1  0  0  0
 31 30  1  0  0  0
 31 32  1  0  0  0
 32 33  1  0  0  0
 33 34  1  0  0  0
 34 35  1  0  0  0
 35 36  1  0  0  0
 36 37  1  0  0  0
 34 38  1  0  0  0
  9 10  1  0  0  0
 10 11  2  0  0  0
 10 12  1  0  0  0
 12 13  2  0  0  0
 13 14  1  0  0  0
 14 15  2  0  0  0
 15 16  1  0  0  0
 15 17  1  0  0  0
 17 18  2  0  0  0
  7  2  1  0  0  0
 38 31  1  0  0  0
 18 12  1  0  0  0
 28 19  1  0  0  0
 18  7  1  0  0  0
 28 23  1  0  0  0
 37 34  1  0  0  0
 31 39  1  0  0  0
M  CHG 1  31   1
M  END
> <minimizedAffinity>
-9.85567

> <CNNscore>
0.4353631735

> <CNNaffinity>
6.9646310806

> <CNN_VS>
3.0321438313

> <CNNaffinity_variance>
0.0316271707

$$$$



 39 45  0  0  0  0  0  0  0  0999 V2000
   10.8346   -2.4006   24.8830 C   0  0  0  0  0  0  0  0  0  0  0  0
    9.4599   -2.7160   24.3724 C   0  0  0  0  0  0  0  0  0  0  0  0
    8.9337   -4.0036   24.9340 C   0  0  0  0  0  0  0  0  0  0  0  0
    7.5631   -4.2303   24.3680 N   0  0  0  0  0  0  0  0  0  0  0  0
    7.2424   -3.0829   23.4567 C   0  0  0  0  0  0  0  0  0  0  0  0
    5.9723   -2.9029   22.6791 O   0  0  0  0  0  0  0  0  0  0  0  0
    8.4146   -2.1470   23.4594 C   0  0  0  0  0  0  0  0  0  0  0  0
    7.2818   -1.7033   22.5821 C   0  0  0  0  0  0  0  0  0  0  0  0
    7.3898   -0.4231   21.8078 N   0  0  0  0  0  0  0  0  0  0  0  0
    8.6306    0.4133   21.9107 C   0  0  0  0  0  0  0  0  0  0  0  0
    8.7386    1.6934   21.1364 O   0  0  0  0  0  0  0  0  0  0  0  0
    9.7636   -0.0304   22.7881 C   0  0  0  0  0  0  0  0  0  0  0  0
   11.0044    0.8060   22.8910 C   0  0  0  0  0  0  0  0  0  0  0  0
   12.1373    0.3622   23.7683 C   0  0  0  0  0  0  0  0  0  0  0  0
   12.0293   -0.9179   24.5427 C   0  0  0  0  0  0  0  0  0  0  0  0
   13.1622   -1.3616   25.4200 Cl  0  0  0  0  0  0  0  0  0  0  0  0
   10.7884   -1.7543   24.4397 C   0  0  0  0  0  0  0  0  0  0  0  0
    9.6556   -1.3106   23.5624 C   0  0  0  0  0  0  0  0  0  0  0  0
    6.6702   -5.3992   24.6618 C   0  0  0  0  0  0  0  0  0  0  0  0
    7.0188   -6.7600   24.1360 C   0  0  0  0  0  0  0  0  0  0  0  0
    6.1258   -7.9289   24.4297 N   0  0  0  0  0  0  0  0  0  0  0  0
    4.8843   -7.7369   25.2493 C   0  0  0  0  0  0  0  0  0  0  0  0
    4.5357   -6.3760   25.7751 C   0  0  0  0  0  0  0  0  0  0  0  0
    3.2941   -6.1840   26.5947 C   0  0  0  0  0  0  0  0  0  0  0  0
    2.9456   -4.8230   27.1204 C   0  0  0  0  0  0  0  0  0  0  0  0
    3.8385   -3.6542   26.8266 C   0  0  0  0  0  0  0  0  0  0  0  0
    5.0801   -3.8463   26.0071 C   0  0  0  0  0  0  0  0  0  0  0  0
    5.4286   -5.2071   25.4813 C   0  0  0  0  0  0  0  0  0  0  0  0
    6.2568    0.0206   20.9304 C   0  0  0  0  0  0  0  0  0  0  0  0
    4.9377    0.3929   21.5398 C   0  0  0  0  0  0  0  0  0  0  0  0
    4.4865    1.8233   21.5352 N   0  0  0  0  0  0  0  0  0  0  0  0
    3.0640    2.2992   21.5413 C   0  0  0  0  0  0  0  0  0  0  0  0
    3.0769    3.7991   21.5336 C   0  0  0  0  0  0  0  0  0  0  0  0
    4.5074    4.2503   21.5227 C   0  0  0  0  0  0  0  0  0  0  0  0
    5.8496    4.9197   21.5113 C   0  0  0  0  0  0  0  0  0  0  0  0
    5.1802    6.2621   21.5085 O   0  0  0  0  0  0  0  0  0  0  0  0
    3.8379    5.5926   21.5199 C   0  0  0  0  0  0  0  0  0  0  0  0
    5.3786    3.0292   21.5237 C   0  0  0  0  0  0  0  0  0  0  0  0
    3.7591    1.1084   21.5432 H   0  0  0  0  0  0  0  0  0  0  0  0
  2  1  1  0  0  0
  2  3  1  0  0  0
  3  4  1  0  0  0
  4 19  1  0  0  0
 19 20  2  0  0  0
 20 21  1  0  0  0
 21 22  2  0  0  0
 22 23  1  0  0  0
 23 24  2  0  0  0
 24 25  1  0  0  0
 25 26  2  0  0  0
 26 27  1  0  0  0
 27 28  2  0  0  0
  4  5  1  0  0  0
  5  6  2  0  0  0
  5  7  1  0  0  0
  7  8  1  0  0  0
  8  9  1  0  0  0
  9 29  1  0  0  0
 29 30  1  0  0  0
 31 30  1  0  0  0
 31 32  1  0  0  0
 32 33  1  0  0  0
 33 34  1  0  0  0
 34 35  1  0  0  0
 35 36  1  0  0  0
 36 37  1  0  0  0
 34 38  1  0  0  0
  9 10  1  0  0  0
 10 11  2  0  0  0
 10 12  1  0  0  0
 12 13  2  0  0  0
 13 14  1  0  0  0
 14 15  2  0  0  0
 15 16  1  0  0  0
 15 17  1  0  0  0
 17 18  2  0  0  0
  7  2  1  0  0  0
 38 31  1  0  0  0
 18 12  1  0  0  0
 28 19  1  0  0  0
 18  7  1  0  0  0
 28 23  1  0  0  0
 37 34  1  0  0  0
 31 39  1  0  0  0
M  CHG 1  31   1
M  END
> <minimizedAffinity>
-8.93338

> <CNNscore>
0.4348513186

> <CNNaffinity>
6.7288351059

> <CNN_VS>
2.9260427952

> <CNNaffinity_variance>
0.0833400637

$$$$



 39 45  0  0  0  0  0  0  0  0999 V2000
   10.8525   -3.1490   26.3163 C   0  0  0  0  0  0  0  0  0  0  0  0
    9.4370   -2.7168   26.0718 C   0  0  0  0  0  0  0  0  0  0  0  0
    8.4482   -3.6340   26.7285 C   0  0  0  0  0  0  0  0  0  0  0  0
    7.0707   -3.1217   26.4283 N   0  0  0  0  0  0  0  0  0  0  0  0
    7.2082   -1.8881   25.5862 C   0  0  0  0  0  0  0  0  0  0  0  0
    6.0811   -1.0515   25.0572 O   0  0  0  0  0  0  0  0  0  0  0  0
    8.6707   -1.6378   25.3659 C   0  0  0  0  0  0  0  0  0  0  0  0
    7.7739   -0.6289   24.7119 C   0  0  0  0  0  0  0  0  0  0  0  0
    8.3660    0.5018   23.9240 N   0  0  0  0  0  0  0  0  0  0  0  0
    9.8550    0.6236   23.7900 C   0  0  0  0  0  0  0  0  0  0  0  0
   10.4472    1.7543   23.0021 O   0  0  0  0  0  0  0  0  0  0  0  0
   10.7519   -0.3854   24.4439 C   0  0  0  0  0  0  0  0  0  0  0  0
   12.2409   -0.2636   24.3099 C   0  0  0  0  0  0  0  0  0  0  0  0
   13.1378   -1.2725   24.9638 C   0  0  0  0  0  0  0  0  0  0  0  0
   12.5456   -2.4032   25.7518 C   0  0  0  0  0  0  0  0  0  0  0  0
   13.4426   -3.4122   26.4057 Cl  0  0  0  0  0  0  0  0  0  0  0  0
   11.0566   -2.5250   25.8858 C   0  0  0  0  0  0  0  0  0  0  0  0
   10.1598   -1.5161   25.2319 C   0  0  0  0  0  0  0  0  0  0  0  0
    5.7820   -3.7354   26.8893 C   0  0  0  0  0  0  0  0  0  0  0  0
    5.0296   -4.6671   25.9861 C   0  0  0  0  0  0  0  0  0  0  0  0
    3.7409   -5.2808   26.4471 N   0  0  0  0  0  0  0  0  0  0  0  0
    3.2045   -4.9627   27.8113 C   0  0  0  0  0  0  0  0  0  0  0  0
    3.9569   -4.0309   28.7145 C   0  0  0  0  0  0  0  0  0  0  0  0
    3.4204   -3.7128   30.0788 C   0  0  0  0  0  0  0  0  0  0  0  0
    4.1729   -2.7810   30.9819 C   0  0  0  0  0  0  0  0  0  0  0  0
    5.4616   -2.1674   30.5209 C   0  0  0  0  0  0  0  0  0  0  0  0
    5.9980   -2.4855   29.1567 C   0  0  0  0  0  0  0  0  0  0  0  0
    5.2456   -3.4172   28.2535 C   0  0  0  0  0  0  0  0  0  0  0  0
    7.4691    1.5108   23.2701 C   0  0  0  0  0  0  0  0  0  0  0  0
    6.0363    1.1688   22.9872 C   0  0  0  0  0  0  0  0  0  0  0  0
    5.5121    1.2367   21.5835 N   0  0  0  0  0  0  0  0  0  0  0  0
    4.4363    2.1569   21.0877 C   0  0  0  0  0  0  0  0  0  0  0  0
    4.2309    1.8852   19.6268 C   0  0  0  0  0  0  0  0  0  0  0  0
    5.1798    0.7971   19.2198 C   0  0  0  0  0  0  0  0  0  0  0  0
    6.0350   -0.2669   18.5983 C   0  0  0  0  0  0  0  0  0  0  0  0
    5.3688   -0.0297   17.2754 O   0  0  0  0  0  0  0  0  0  0  0  0
    4.5136    1.0344   17.8970 C   0  0  0  0  0  0  0  0  0  0  0  0
    5.9716    0.3963   20.4291 C   0  0  0  0  0  0  0  0  0  0  0  0
    5.0990    1.8750   22.2634 H   0  0  0  0  0  0  0  0  0  0  0  0
  2  1  1  0  0  0
  2  3  1  0  0  0
  3  4  1  0  0  0
  4 19  1  0  0  0
 19 20  2  0  0  0
 20 21  1  0  0  0
 21 22  2  0  0  0
 22 23  1  0  0  0
 23 24  2  0  0  0
 24 25  1  0  0  0
 25 26  2  0  0  0
 26 27  1  0  0  0
 27 28  2  0  0  0
  4  5  1  0  0  0
  5  6  2  0  0  0
  5  7  1  0  0  0
  7  8  1  0  0  0
  8  9  1  0  0  0
  9 29  1  0  0  0
 29 30  1  0  0  0
 31 30  1  0  0  0
 31 32  1  0  0  0
 32 33  1  0  0  0
 33 34  1  0  0  0
 34 35  1  0  0  0
 35 36  1  0  0  0
 36 37  1  0  0  0
 34 38  1  0  0  0
  9 10  1  0  0  0
 10 11  2  0  0  0
 10 12  1  0  0  0
 12 13  2  0  0  0
 13 14  1  0  0  0
 14 15  2  0  0  0
 15 16  1  0  0  0
 15 17  1  0  0  0
 17 18  2  0  0  0
  7  2  1  0  0  0
 38 31  1  0  0  0
 18 12  1  0  0  0
 28 19  1  0  0  0
 18  7  1  0  0  0
 28 23  1  0  0  0
 37 34  1  0  0  0
 31 39  1  0  0  0
M  CHG 1  31   1
M  END
> <minimizedAffinity>
-9.26649

> <CNNscore>
0.3826783001

> <CNNaffinity>
6.6332902908

> <CNN_VS>
2.5384161472

> <CNNaffinity_variance>
0.0575302616

$$$$



 39 45  0  0  0  0  0  0  0  0999 V2000
   11.0778   -2.5991   24.8011 C   0  0  0  0  0  0  0  0  0  0  0  0
    9.6516   -2.7857   24.3755 C   0  0  0  0  0  0  0  0  0  0  0  0
    9.0732   -4.0682   24.8958 C   0  0  0  0  0  0  0  0  0  0  0  0
    7.6538   -4.1631   24.4201 N   0  0  0  0  0  0  0  0  0  0  0  0
    7.3550   -2.9393   23.6059 C   0  0  0  0  0  0  0  0  0  0  0  0
    6.0504   -2.6225   22.9367 O   0  0  0  0  0  0  0  0  0  0  0  0
    8.5897   -2.0880   23.5783 C   0  0  0  0  0  0  0  0  0  0  0  0
    7.4339   -1.5114   22.8156 C   0  0  0  0  0  0  0  0  0  0  0  0
    7.5809   -0.1937   22.1140 N   0  0  0  0  0  0  0  0  0  0  0  0
    8.8836    0.5473   22.1751 C   0  0  0  0  0  0  0  0  0  0  0  0
    9.0306    1.8650   21.4736 O   0  0  0  0  0  0  0  0  0  0  0  0
   10.0394   -0.0293   22.9379 C   0  0  0  0  0  0  0  0  0  0  0  0
   11.3421    0.7118   22.9990 C   0  0  0  0  0  0  0  0  0  0  0  0
   12.4978    0.1352   23.7618 C   0  0  0  0  0  0  0  0  0  0  0  0
   12.3509   -1.1825   24.4633 C   0  0  0  0  0  0  0  0  0  0  0  0
   13.5067   -1.7591   25.2261 Cl  0  0  0  0  0  0  0  0  0  0  0  0
   11.0482   -1.9235   24.4022 C   0  0  0  0  0  0  0  0  0  0  0  0
    9.8925   -1.3469   23.6395 C   0  0  0  0  0  0  0  0  0  0  0  0
    6.7006   -5.2849   24.7081 C   0  0  0  0  0  0  0  0  0  0  0  0
    6.9472   -6.6461   24.1284 C   0  0  0  0  0  0  0  0  0  0  0  0
    5.9940   -7.7679   24.4164 N   0  0  0  0  0  0  0  0  0  0  0  0
    4.7941   -7.5284   25.2841 C   0  0  0  0  0  0  0  0  0  0  0  0
    4.5474   -6.1671   25.8637 C   0  0  0  0  0  0  0  0  0  0  0  0
    3.3475   -5.9276   26.7314 C   0  0  0  0  0  0  0  0  0  0  0  0
    3.1009   -4.5662   27.3111 C   0  0  0  0  0  0  0  0  0  0  0  0
    4.0541   -3.4445   27.0230 C   0  0  0  0  0  0  0  0  0  0  0  0
    5.2540   -3.6841   26.1554 C   0  0  0  0  0  0  0  0  0  0  0  0
    5.5007   -5.0453   25.5758 C   0  0  0  0  0  0  0  0  0  0  0  0
    6.4251    0.3829   21.3512 C   0  0  0  0  0  0  0  0  0  0  0  0
    5.7085    1.5916   21.8759 C   0  0  0  0  0  0  0  0  0  0  0  0
    4.2567    1.7984   21.5606 N   0  0  0  0  0  0  0  0  0  0  0  0
    3.1125    1.6127   22.5126 C   0  0  0  0  0  0  0  0  0  0  0  0
    1.8429    1.9268   21.7782 C   0  0  0  0  0  0  0  0  0  0  0  0
    2.2023    2.3067   20.3723 C   0  0  0  0  0  0  0  0  0  0  0  0
    2.3302    2.7142   18.9345 C   0  0  0  0  0  0  0  0  0  0  0  0
    0.8400    2.8591   18.8429 O   0  0  0  0  0  0  0  0  0  0  0  0
    0.7121    2.4515   20.2808 C   0  0  0  0  0  0  0  0  0  0  0  0
    3.6942    2.2273   20.2378 C   0  0  0  0  0  0  0  0  0  0  0  0
    4.4871    1.5044   22.5097 H   0  0  0  0  0  0  0  0  0  0  0  0
  2  1  1  0  0  0
  2  3  1  0  0  0
  3  4  1  0  0  0
  4 19  1  0  0  0
 19 20  2  0  0  0
 20 21  1  0  0  0
 21 22  2  0  0  0
 22 23  1  0  0  0
 23 24  2  0  0  0
 24 25  1  0  0  0
 25 26  2  0  0  0
 26 27  1  0  0  0
 27 28  2  0  0  0
  4  5  1  0  0  0
  5  6  2  0  0  0
  5  7  1  0  0  0
  7  8  1  0  0  0
  8  9  1  0  0  0
  9 29  1  0  0  0
 29 30  1  0  0  0
 31 30  1  0  0  0
 31 32  1  0  0  0
 32 33  1  0  0  0
 33 34  1  0  0  0
 34 35  1  0  0  0
 35 36  1  0  0  0
 36 37  1  0  0  0
 34 38  1  0  0  0
  9 10  1  0  0  0
 10 11  2  0  0  0
 10 12  1  0  0  0
 12 13  2  0  0  0
 13 14  1  0  0  0
 14 15  2  0  0  0
 15 16  1  0  0  0
 15 17  1  0  0  0
 17 18  2  0  0  0
  7  2  1  0  0  0
 38 31  1  0  0  0
 18 12  1  0  0  0
 28 19  1  0  0  0
 18  7  1  0  0  0
 28 23  1  0  0  0
 37 34  1  0  0  0
 31 39  1  0  0  0
M  CHG 1  31   1
M  END
> <minimizedAffinity>
-9.19125

> <CNNscore>
0.3698005974

> <CNNaffinity>
6.6584367752

> <CNN_VS>
2.4622938633

> <CNNaffinity_variance>
0.1068176180

$$$$



 39 45  0  0  0  0  0  0  0  0999 V2000
   10.9125   -2.4806   24.8742 C   0  0  0  0  0  0  0  0  0  0  0  0
    9.5184   -2.7461   24.3881 C   0  0  0  0  0  0  0  0  0  0  0  0
    8.9677   -4.0299   24.9345 C   0  0  0  0  0  0  0  0  0  0  0  0
    7.5793   -4.2056   24.3947 N   0  0  0  0  0  0  0  0  0  0  0  0
    7.2719   -3.0304   23.5147 C   0  0  0  0  0  0  0  0  0  0  0  0
    5.9909   -2.7980   22.7697 O   0  0  0  0  0  0  0  0  0  0  0  0
    8.4703   -2.1283   23.5106 C   0  0  0  0  0  0  0  0  0  0  0  0
    7.3319   -1.6341   22.6683 C   0  0  0  0  0  0  0  0  0  0  0  0
    7.4598   -0.3413   21.9184 N   0  0  0  0  0  0  0  0  0  0  0  0
    8.7261    0.4573   22.0109 C   0  0  0  0  0  0  0  0  0  0  0  0
    8.8540    1.7501   21.2610 O   0  0  0  0  0  0  0  0  0  0  0  0
    9.8647   -0.0369   22.8533 C   0  0  0  0  0  0  0  0  0  0  0  0
   11.1310    0.7616   22.9458 C   0  0  0  0  0  0  0  0  0  0  0  0
   12.2695    0.2674   23.7881 C   0  0  0  0  0  0  0  0  0  0  0  0
   12.1416   -1.0254   24.5380 C   0  0  0  0  0  0  0  0  0  0  0  0
   13.2801   -1.5196   25.3804 Cl  0  0  0  0  0  0  0  0  0  0  0  0
   10.8752   -1.8239   24.4455 C   0  0  0  0  0  0  0  0  0  0  0  0
    9.7368   -1.3297   23.6031 C   0  0  0  0  0  0  0  0  0  0  0  0
    6.6597   -5.3548   24.6841 C   0  0  0  0  0  0  0  0  0  0  0  0
    6.9761   -6.7209   24.1519 C   0  0  0  0  0  0  0  0  0  0  0  0
    6.0565   -7.8701   24.4413 N   0  0  0  0  0  0  0  0  0  0  0  0
    4.8205   -7.6530   25.2629 C   0  0  0  0  0  0  0  0  0  0  0  0
    4.5041   -6.2867   25.7951 C   0  0  0  0  0  0  0  0  0  0  0  0
    3.2680   -6.0697   26.6168 C   0  0  0  0  0  0  0  0  0  0  0  0
    2.9516   -4.7034   27.1490 C   0  0  0  0  0  0  0  0  0  0  0  0
    3.8712   -3.5543   26.8596 C   0  0  0  0  0  0  0  0  0  0  0  0
    5.1073   -3.7714   26.0380 C   0  0  0  0  0  0  0  0  0  0  0  0
    5.4237   -5.1376   25.5058 C   0  0  0  0  0  0  0  0  0  0  0  0
    6.3213    0.1529   21.0760 C   0  0  0  0  0  0  0  0  0  0  0  0
    6.1257    1.6256   20.8688 C   0  0  0  0  0  0  0  0  0  0  0  0
    4.8017    2.1468   20.3941 N   0  0  0  0  0  0  0  0  0  0  0  0
    3.9857    1.5855   19.2676 C   0  0  0  0  0  0  0  0  0  0  0  0
    2.7409    2.4127   19.1399 C   0  0  0  0  0  0  0  0  0  0  0  0
    2.7876    3.4852   20.1876 C   0  0  0  0  0  0  0  0  0  0  0  0
    2.6265    4.6260   21.1480 C   0  0  0  0  0  0  0  0  0  0  0  0
    1.3115    4.9731   20.5153 O   0  0  0  0  0  0  0  0  0  0  0  0
    1.4726    3.8322   19.5549 C   0  0  0  0  0  0  0  0  0  0  0  0
    4.0612    3.3209   20.9627 C   0  0  0  0  0  0  0  0  0  0  0  0
    5.1822    1.3361   19.9059 H   0  0  0  0  0  0  0  0  0  0  0  0
  2  1  1  0  0  0
  2  3  1  0  0  0
  3  4  1  0  0  0
  4 19  1  0  0  0
 19 20  2  0  0  0
 20 21  1  0  0  0
 21 22  2  0  0  0
 22 23  1  0  0  0
 23 24  2  0  0  0
 24 25  1  0  0  0
 25 26  2  0  0  0
 26 27  1  0  0  0
 27 28  2  0  0  0
  4  5  1  0  0  0
  5  6  2  0  0  0
  5  7  1  0  0  0
  7  8  1  0  0  0
  8  9  1  0  0  0
  9 29  1  0  0  0
 29 30  1  0  0  0
 31 30  1  0  0  0
 31 32  1  0  0  0
 32 33  1  0  0  0
 33 34  1  0  0  0
 34 35  1  0  0  0
 35 36  1  0  0  0
 36 37  1  0  0  0
 34 38  1  0  0  0
  9 10  1  0  0  0
 10 11  2  0  0  0
 10 12  1  0  0  0
 12 13  2  0  0  0
 13 14  1  0  0  0
 14 15  2  0  0  0
 15 16  1  0  0  0
 15 17  1  0  0  0
 17 18  2  0  0  0
  7  2  1  0  0  0
 38 31  1  0  0  0
 18 12  1  0  0  0
 28 19  1  0  0  0
 18  7  1  0  0  0
 28 23  1  0  0  0
 37 34  1  0  0  0
 31 39  1  0  0  0
M  CHG 1  31   1
M  END
> <minimizedAffinity>
-9.65824

> <CNNscore>
0.3486558795

> <CNNaffinity>
6.5854020119

> <CNN_VS>
2.2960391045

> <CNNaffinity_variance>
0.0240716245

$$$$



 39 45  0  0  0  0  0  0  0  0999 V2000
   10.6272   -1.3408   22.7113 C   0  0  0  0  0  0  0  0  0  0  0  0
    9.1334   -1.2466   22.6120 C   0  0  0  0  0  0  0  0  0  0  0  0
    8.6931   -0.6631   21.3022 C   0  0  0  0  0  0  0  0  0  0  0  0
    7.1940   -0.6104   21.2988 N   0  0  0  0  0  0  0  0  0  0  0  0
    6.7080   -1.1614   22.6066 C   0  0  0  0  0  0  0  0  0  0  0  0
    5.2748   -1.2955   23.0286 O   0  0  0  0  0  0  0  0  0  0  0  0
    7.9066   -1.5546   23.4182 C   0  0  0  0  0  0  0  0  0  0  0  0
    6.5964   -1.8072   24.1033 C   0  0  0  0  0  0  0  0  0  0  0  0
    6.5723   -2.4036   25.4794 N   0  0  0  0  0  0  0  0  0  0  0  0
    7.8585   -2.7475   26.1704 C   0  0  0  0  0  0  0  0  0  0  0  0
    7.8344   -3.3439   27.5465 O   0  0  0  0  0  0  0  0  0  0  0  0
    9.1688   -2.4949   25.4852 C   0  0  0  0  0  0  0  0  0  0  0  0
   10.4550   -2.8387   26.1762 C   0  0  0  0  0  0  0  0  0  0  0  0
   11.7652   -2.5861   25.4910 C   0  0  0  0  0  0  0  0  0  0  0  0
   11.7892   -1.9897   24.1149 C   0  0  0  0  0  0  0  0  0  0  0  0
   13.0995   -1.7371   23.4298 Cl  0  0  0  0  0  0  0  0  0  0  0  0
   10.5031   -1.6458   23.4240 C   0  0  0  0  0  0  0  0  0  0  0  0
    9.1928   -1.8984   24.1091 C   0  0  0  0  0  0  0  0  0  0  0  0
    6.3323   -0.0969   20.1836 C   0  0  0  0  0  0  0  0  0  0  0  0
    6.3765   -0.7563   18.8371 C   0  0  0  0  0  0  0  0  0  0  0  0
    5.5148   -0.2428   17.7219 N   0  0  0  0  0  0  0  0  0  0  0  0
    4.6089    0.9301   17.9532 C   0  0  0  0  0  0  0  0  0  0  0  0
    4.5647    1.5896   19.2998 C   0  0  0  0  0  0  0  0  0  0  0  0
    3.6587    2.7626   19.5311 C   0  0  0  0  0  0  0  0  0  0  0  0
    3.6146    3.4219   20.8777 C   0  0  0  0  0  0  0  0  0  0  0  0
    4.4763    2.9084   21.9928 C   0  0  0  0  0  0  0  0  0  0  0  0
    5.3822    1.7355   21.7615 C   0  0  0  0  0  0  0  0  0  0  0  0
    5.4264    1.0761   20.4150 C   0  0  0  0  0  0  0  0  0  0  0  0
    5.2620   -2.6562   26.1646 C   0  0  0  0  0  0  0  0  0  0  0  0
    4.5866   -1.5517   26.9221 C   0  0  0  0  0  0  0  0  0  0  0  0
    5.0548   -1.1927   28.3011 N   0  0  0  0  0  0  0  0  0  0  0  0
    5.1697   -2.1314   29.4654 C   0  0  0  0  0  0  0  0  0  0  0  0
    5.6763   -1.3508   30.6419 C   0  0  0  0  0  0  0  0  0  0  0  0
    5.8745    0.0703   30.2047 C   0  0  0  0  0  0  0  0  0  0  0  0
    6.1435    1.5300   29.9886 C   0  0  0  0  0  0  0  0  0  0  0  0
    6.5751    1.6623   31.4192 O   0  0  0  0  0  0  0  0  0  0  0  0
    6.3060    0.2025   31.6352 C   0  0  0  0  0  0  0  0  0  0  0  0
    5.4904    0.1680   28.7580 C   0  0  0  0  0  0  0  0  0  0  0  0
    4.7902   -2.1646   28.1403 H   0  0  0  0  0  0  0  0  0  0  0  0
  2  1  1  0  0  0
  2  3  1  0  0  0
  3  4  1  0  0  0
  4 19  1  0  0  0
 19 20  2  0  0  0
 20 21  1  0  0  0
 21 22  2  0  0  0
 22 23  1  0  0  0
 23 24  2  0  0  0
 24 25  1  0  0  0
 25 26  2  0  0  0
 26 27  1  0  0  0
 27 28  2  0  0  0
  4  5  1  0  0  0
  5  6  2  0  0  0
  5  7  1  0  0  0
  7  8  1  0  0  0
  8  9  1  0  0  0
  9 29  1  0  0  0
 29 30  1  0  0  0
 31 30  1  0  0  0
 31 32  1  0  0  0
 32 33  1  0  0  0
 33 34  1  0  0  0
 34 35  1  0  0  0
 35 36  1  0  0  0
 36 37  1  0  0  0
 34 38  1  0  0  0
  9 10  1  0  0  0
 10 11  2  0  0  0
 10 12  1  0  0  0
 12 13  2  0  0  0
 13 14  1  0  0  0
 14 15  2  0  0  0
 15 16  1  0  0  0
 15 17  1  0  0  0
 17 18  2  0  0  0
  7  2  1  0  0  0
 38 31  1  0  0  0
 18 12  1  0  0  0
 28 19  1  0  0  0
 18  7  1  0  0  0
 28 23  1  0  0  0
 37 34  1  0  0  0
 31 39  1  0  0  0
M  CHG 1  31   1
M  END
> <minimizedAffinity>
-8.70702

> <CNNscore>
0.3345678747

> <CNNaffinity>
6.4710426331

> <CNN_VS>
2.1650030613

> <CNNaffinity_variance>
0.1447182745

$$$$
