


 36 40  0  0  0  0  0  0  0  0999 V2000
    8.2602    4.4584   23.6054 N   0  0  0  0  0  0  0  0  0  0  0  0
    7.5504    3.1880   23.9688 C   0  0  0  0  0  0  0  0  0  0  0  0
    8.2650    1.8733   23.8641 C   0  0  0  0  0  0  0  0  0  0  0  0
    8.8468    0.4918   23.8101 C   0  0  0  0  0  0  0  0  0  0  0  0
    9.8848   -0.0705   23.5223 O   0  0  0  0  0  0  0  0  0  0  0  0
    7.7901   -0.4741   24.2580 N   0  0  0  0  0  0  0  0  0  0  0  0
    6.5552    0.3105   24.5888 C   0  0  0  0  0  0  0  0  0  0  0  0
    6.8487    1.7612   24.3453 C   0  0  0  0  0  0  0  0  0  0  0  0
    9.6894    1.8290   23.3959 C   0  0  0  0  0  0  0  0  0  0  0  0
   10.4039    0.5143   23.2912 C   0  0  0  0  0  0  0  0  0  0  0  0
   11.8283    0.4701   22.8230 C   0  0  0  0  0  0  0  0  0  0  0  0
   12.5429   -0.8446   22.7183 Cl  0  0  0  0  0  0  0  0  0  0  0  0
   12.5381    1.7406   22.4596 C   0  0  0  0  0  0  0  0  0  0  0  0
   11.8235    3.0553   22.5643 C   0  0  0  0  0  0  0  0  0  0  0  0
   10.3992    3.0995   23.0325 C   0  0  0  0  0  0  0  0  0  0  0  0
    9.6846    4.4142   23.1372 C   0  0  0  0  0  0  0  0  0  0  0  0
   10.3944    5.6847   22.7738 O   0  0  0  0  0  0  0  0  0  0  0  0
    7.9418   -1.9631   24.3576 C   0  0  0  0  0  0  0  0  0  0  0  0
    6.9472   -2.8647   23.6883 C   0  0  0  0  0  0  0  0  0  0  0  0
    7.0989   -4.3537   23.7879 N   0  0  0  0  0  0  0  0  0  0  0  0
    8.2451   -4.9410   24.5568 C   0  0  0  0  0  0  0  0  0  0  0  0
    9.2396   -4.0394   25.2261 C   0  0  0  0  0  0  0  0  0  0  0  0
   10.3858   -4.6268   25.9951 C   0  0  0  0  0  0  0  0  0  0  0  0
   11.3803   -3.7251   26.6644 C   0  0  0  0  0  0  0  0  0  0  0  0
   11.2286   -2.2361   26.5648 C   0  0  0  0  0  0  0  0  0  0  0  0
   10.0825   -1.6487   25.7959 C   0  0  0  0  0  0  0  0  0  0  0  0
    9.0879   -2.5504   25.1265 C   0  0  0  0  0  0  0  0  0  0  0  0
    7.5456    5.7731   23.7101 C   0  0  0  0  0  0  0  0  0  0  0  0
    6.0715    7.5169   20.4642 C   0  0  0  0  0  0  0  0  0  0  0  0
    7.0351    7.0996   21.5353 N   0  0  0  0  0  0  0  0  0  0  0  0
    6.5820    6.1904   22.6390 C   0  0  0  0  0  0  0  0  0  0  0  0
    5.1653    5.6984   22.6715 O   0  0  0  0  0  0  0  0  0  0  0  0
    7.9649    7.4225   21.5140 H   0  0  0  0  0  0  0  0  0  0  0  0
    5.8935    2.9000   24.5476 C   0  0  0  0  0  0  0  0  0  0  0  0
    4.4333    2.7144   24.2594 O   0  0  0  0  0  0  0  0  0  0  0  0
    3.5174    2.1973   25.3289 C   0  0  0  0  0  0  0  0  0  0  0  0
 29 30  1  0  0  0
 30 31  1  0  0  0
 31 32  2  0  0  0
 31 28  1  0  0  0
 28  1  1  0  0  0
  1  2  1  0  0  0
  3  2  1  0  0  0
  3  4  1  0  0  0
  4  5  2  0  0  0
  4  6  1  0  0  0
  6 18  1  0  0  0
 18 19  2  0  0  0
 19 20  1  0  0  0
 20 21  2  0  0  0
 21 22  1  0  0  0
 22 23  2  0  0  0
 23 24  1  0  0  0
 24 25  2  0  0  0
 25 26  1  0  0  0
 26 27  2  0  0  0
  6  7  1  0  0  0
  7  8  1  0  0  0
  8 34  1  0  0  0
 34 35  1  0  0  0
 35 36  1  0  0  0
  3  9  1  0  0  0
  9 10  2  0  0  0
 10 11  1  0  0  0
 11 12  1  0  0  0
 11 13  2  0  0  0
 13 14  1  0  0  0
 14 15  2  0  0  0
 15 16  1  0  0  0
 16 17  2  0  0  0
 16  1  1  0  0  0
  8  3  1  0  0  0
 15  9  1  0  0  0
 27 18  1  0  0  0
 27 22  1  0  0  0
 30 33  1  0  0  0
M  END
> <minimizedAffinity>
-6.89262

> <CNNscore>
0.4465273321

> <CNNaffinity>
6.5716118813

> <CNN_VS>
2.9344043732

> <CNNaffinity_variance>
0.3003386855

$$$$



 36 40  0  0  0  0  0  0  0  0999 V2000
   10.3488    0.6005   23.6726 N   0  0  0  0  0  0  0  0  0  0  0  0
    8.9647    0.2007   24.0901 C   0  0  0  0  0  0  0  0  0  0  0  0
    8.7650   -0.9846   24.9873 C   0  0  0  0  0  0  0  0  0  0  0  0
    8.4113   -2.1402   25.8759 C   0  0  0  0  0  0  0  0  0  0  0  0
    8.9489   -3.0371   26.4947 O   0  0  0  0  0  0  0  0  0  0  0  0
    6.9193   -2.1688   26.0274 N   0  0  0  0  0  0  0  0  0  0  0  0
    6.3507   -1.0309   25.2325 C   0  0  0  0  0  0  0  0  0  0  0  0
    7.4915   -0.2990   24.5897 C   0  0  0  0  0  0  0  0  0  0  0  0
    9.9494   -1.7702   25.4670 C   0  0  0  0  0  0  0  0  0  0  0  0
    9.7497   -2.9556   26.3642 C   0  0  0  0  0  0  0  0  0  0  0  0
   10.9341   -3.7411   26.8438 C   0  0  0  0  0  0  0  0  0  0  0  0
   10.7344   -4.9266   27.7411 Cl  0  0  0  0  0  0  0  0  0  0  0  0
   12.3182   -3.3414   26.4262 C   0  0  0  0  0  0  0  0  0  0  0  0
   12.5179   -2.1560   25.5290 C   0  0  0  0  0  0  0  0  0  0  0  0
   11.3335   -1.3705   25.0494 C   0  0  0  0  0  0  0  0  0  0  0  0
   11.5332   -0.1850   24.1522 C   0  0  0  0  0  0  0  0  0  0  0  0
   12.9173    0.2148   23.7346 O   0  0  0  0  0  0  0  0  0  0  0  0
    6.1337   -3.1611   26.8325 C   0  0  0  0  0  0  0  0  0  0  0  0
    6.0490   -3.0183   28.3233 C   0  0  0  0  0  0  0  0  0  0  0  0
    5.2634   -4.0106   29.1284 N   0  0  0  0  0  0  0  0  0  0  0  0
    4.5625   -5.1457   28.4427 C   0  0  0  0  0  0  0  0  0  0  0  0
    4.6472   -5.2885   26.9519 C   0  0  0  0  0  0  0  0  0  0  0  0
    3.9463   -6.4238   26.2662 C   0  0  0  0  0  0  0  0  0  0  0  0
    4.0311   -6.5665   24.7754 C   0  0  0  0  0  0  0  0  0  0  0  0
    4.8167   -5.5742   23.9703 C   0  0  0  0  0  0  0  0  0  0  0  0
    5.5175   -4.4391   24.6560 C   0  0  0  0  0  0  0  0  0  0  0  0
    5.4328   -4.2962   26.1468 C   0  0  0  0  0  0  0  0  0  0  0  0
   10.5485    1.7859   22.7753 C   0  0  0  0  0  0  0  0  0  0  0  0
    8.0378    4.8304   23.1962 C   0  0  0  0  0  0  0  0  0  0  0  0
    9.1727    3.8835   23.4515 N   0  0  0  0  0  0  0  0  0  0  0  0
    9.4136    2.7329   22.5199 C   0  0  0  0  0  0  0  0  0  0  0  0
    8.5194    2.5291   21.3328 O   0  0  0  0  0  0  0  0  0  0  0  0
    9.7595    4.0172   24.2306 H   0  0  0  0  0  0  0  0  0  0  0  0
    7.3785    0.9068   23.7046 C   0  0  0  0  0  0  0  0  0  0  0  0
    6.0807    1.6536   23.6167 O   0  0  0  0  0  0  0  0  0  0  0  0
    5.6527    2.5488   24.7416 C   0  0  0  0  0  0  0  0  0  0  0  0
 29 30  1  0  0  0
 30 31  1  0  0  0
 31 32  2  0  0  0
 31 28  1  0  0  0
 28  1  1  0  0  0
  1  2  1  0  0  0
  3  2  1  0  0  0
  3  4  1  0  0  0
  4  5  2  0  0  0
  4  6  1  0  0  0
  6 18  1  0  0  0
 18 19  2  0  0  0
 19 20  1  0  0  0
 20 21  2  0  0  0
 21 22  1  0  0  0
 22 23  2  0  0  0
 23 24  1  0  0  0
 24 25  2  0  0  0
 25 26  1  0  0  0
 26 27  2  0  0  0
  6  7  1  0  0  0
  7  8  1  0  0  0
  8 34  1  0  0  0
 34 35  1  0  0  0
 35 36  1  0  0  0
  3  9  1  0  0  0
  9 10  2  0  0  0
 10 11  1  0  0  0
 11 12  1  0  0  0
 11 13  2  0  0  0
 13 14  1  0  0  0
 14 15  2  0  0  0
 15 16  1  0  0  0
 16 17  2  0  0  0
 16  1  1  0  0  0
  8  3  1  0  0  0
 15  9  1  0  0  0
 27 18  1  0  0  0
 27 22  1  0  0  0
 30 33  1  0  0  0
M  END
> <minimizedAffinity>
-7.52584

> <CNNscore>
0.3940630257

> <CNNaffinity>
6.4060754776

> <CNN_VS>
2.5243973732

> <CNNaffinity_variance>
0.2525406480

$$$$



 36 40  0  0  0  0  0  0  0  0999 V2000
   10.7938    1.5475   22.7399 N   0  0  0  0  0  0  0  0  0  0  0  0
    9.3752    1.2142   23.0957 C   0  0  0  0  0  0  0  0  0  0  0  0
    9.0826    0.0658   24.0152 C   0  0  0  0  0  0  0  0  0  0  0  0
    8.6380   -1.0472   24.9171 C   0  0  0  0  0  0  0  0  0  0  0  0
    9.1068   -1.9444   25.5891 O   0  0  0  0  0  0  0  0  0  0  0  0
    7.1401   -1.0139   24.9909 N   0  0  0  0  0  0  0  0  0  0  0  0
    6.6590    0.1197   24.1345 C   0  0  0  0  0  0  0  0  0  0  0  0
    7.8595    0.7870   23.5315 C   0  0  0  0  0  0  0  0  0  0  0  0
   10.2085   -0.7493   24.5790 C   0  0  0  0  0  0  0  0  0  0  0  0
    9.9159   -1.8977   25.4985 C   0  0  0  0  0  0  0  0  0  0  0  0
   11.0418   -2.7128   26.0623 C   0  0  0  0  0  0  0  0  0  0  0  0
   10.7492   -3.8612   26.9819 Cl  0  0  0  0  0  0  0  0  0  0  0  0
   12.4604   -2.3795   25.7065 C   0  0  0  0  0  0  0  0  0  0  0  0
   12.7530   -1.2311   24.7870 C   0  0  0  0  0  0  0  0  0  0  0  0
   11.6271   -0.4160   24.2232 C   0  0  0  0  0  0  0  0  0  0  0  0
   11.9197    0.7324   23.3036 C   0  0  0  0  0  0  0  0  0  0  0  0
   13.3383    1.0657   22.9479 O   0  0  0  0  0  0  0  0  0  0  0  0
    6.2753   -1.9499   25.7821 C   0  0  0  0  0  0  0  0  0  0  0  0
    5.9766   -3.3219   25.2545 C   0  0  0  0  0  0  0  0  0  0  0  0
    5.1118   -4.2579   26.0457 N   0  0  0  0  0  0  0  0  0  0  0  0
    4.5457   -3.8218   27.3645 C   0  0  0  0  0  0  0  0  0  0  0  0
    4.8444   -2.4498   27.8921 C   0  0  0  0  0  0  0  0  0  0  0  0
    4.2782   -2.0137   29.2110 C   0  0  0  0  0  0  0  0  0  0  0  0
    4.5769   -0.6417   29.7386 C   0  0  0  0  0  0  0  0  0  0  0  0
    5.4418    0.2943   28.9474 C   0  0  0  0  0  0  0  0  0  0  0  0
    6.0079   -0.1418   27.6285 C   0  0  0  0  0  0  0  0  0  0  0  0
    5.7092   -1.5138   27.1009 C   0  0  0  0  0  0  0  0  0  0  0  0
   11.0864    2.6959   21.8203 C   0  0  0  0  0  0  0  0  0  0  0  0
   10.7453    6.3322   23.3730 C   0  0  0  0  0  0  0  0  0  0  0  0
   10.3780    4.9927   22.8066 N   0  0  0  0  0  0  0  0  0  0  0  0
   11.4537    4.0354   22.3867 C   0  0  0  0  0  0  0  0  0  0  0  0
   12.8968    4.4176   22.5331 O   0  0  0  0  0  0  0  0  0  0  0  0
    9.4308    4.7418   22.7105 H   0  0  0  0  0  0  0  0  0  0  0  0
    7.8402    1.9681   22.6071 C   0  0  0  0  0  0  0  0  0  0  0  0
    7.3577    1.8083   21.1959 O   0  0  0  0  0  0  0  0  0  0  0  0
    6.9646    0.4533   20.6865 C   0  0  0  0  0  0  0  0  0  0  0  0
 29 30  1  0  0  0
 30 31  1  0  0  0
 31 32  2  0  0  0
 31 28  1  0  0  0
 28  1  1  0  0  0
  1  2  1  0  0  0
  3  2  1  0  0  0
  3  4  1  0  0  0
  4  5  2  0  0  0
  4  6  1  0  0  0
  6 18  1  0  0  0
 18 19  2  0  0  0
 19 20  1  0  0  0
 20 21  2  0  0  0
 21 22  1  0  0  0
 22 23  2  0  0  0
 23 24  1  0  0  0
 24 25  2  0  0  0
 25 26  1  0  0  0
 26 27  2  0  0  0
  6  7  1  0  0  0
  7  8  1  0  0  0
  8 34  1  0  0  0
 34 35  1  0  0  0
 35 36  1  0  0  0
  3  9  1  0  0  0
  9 10  2  0  0  0
 10 11  1  0  0  0
 11 12  1  0  0  0
 11 13  2  0  0  0
 13 14  1  0  0  0
 14 15  2  0  0  0
 15 16  1  0  0  0
 16 17  2  0  0  0
 16  1  1  0  0  0
  8  3  1  0  0  0
 15  9  1  0  0  0
 27 18  1  0  0  0
 27 22  1  0  0  0
 30 33  1  0  0  0
M  END
> <minimizedAffinity>
-7.50619

> <CNNscore>
0.3654501736

> <CNNaffinity>
6.5256576538

> <CNN_VS>
2.3848028183

> <CNNaffinity_variance>
0.1449737102

$$$$



 36 40  0  0  0  0  0  0  0  0999 V2000
    4.0304   -4.7426   26.3003 N   0  0  0  0  0  0  0  0  0  0  0  0
    5.3342   -4.6798   25.5613 C   0  0  0  0  0  0  0  0  0  0  0  0
    6.1655   -3.4323   25.6116 C   0  0  0  0  0  0  0  0  0  0  0  0
    7.0996   -2.2594   25.5695 C   0  0  0  0  0  0  0  0  0  0  0  0
    7.1934   -1.1282   26.0030 O   0  0  0  0  0  0  0  0  0  0  0  0
    8.2755   -2.6337   24.7168 N   0  0  0  0  0  0  0  0  0  0  0  0
    8.0683   -4.0379   24.2319 C   0  0  0  0  0  0  0  0  0  0  0  0
    6.7642   -4.5315   24.7850 C   0  0  0  0  0  0  0  0  0  0  0  0
    5.6931   -2.2475   26.4011 C   0  0  0  0  0  0  0  0  0  0  0  0
    6.5245   -1.0001   26.4515 C   0  0  0  0  0  0  0  0  0  0  0  0
    6.0521    0.1846   27.2409 C   0  0  0  0  0  0  0  0  0  0  0  0
    6.8835    1.4322   27.2913 Cl  0  0  0  0  0  0  0  0  0  0  0  0
    4.7483    0.1219   27.9799 C   0  0  0  0  0  0  0  0  0  0  0  0
    3.9169   -1.1256   27.9296 C   0  0  0  0  0  0  0  0  0  0  0  0
    4.3893   -2.3103   27.1401 C   0  0  0  0  0  0  0  0  0  0  0  0
    3.5580   -3.5578   27.0897 C   0  0  0  0  0  0  0  0  0  0  0  0
    2.2542   -3.6206   27.8288 O   0  0  0  0  0  0  0  0  0  0  0  0
    9.4521   -1.7575   24.4039 C   0  0  0  0  0  0  0  0  0  0  0  0
    9.2917   -0.5891   23.4770 C   0  0  0  0  0  0  0  0  0  0  0  0
   10.4683    0.2871   23.1641 N   0  0  0  0  0  0  0  0  0  0  0  0
   11.8053   -0.0051   23.7782 C   0  0  0  0  0  0  0  0  0  0  0  0
   11.9657   -1.1735   24.7051 C   0  0  0  0  0  0  0  0  0  0  0  0
   13.3028   -1.4657   25.3191 C   0  0  0  0  0  0  0  0  0  0  0  0
   13.4631   -2.6341   26.2460 C   0  0  0  0  0  0  0  0  0  0  0  0
   12.2865   -3.5103   26.5588 C   0  0  0  0  0  0  0  0  0  0  0  0
   10.9495   -3.2181   25.9448 C   0  0  0  0  0  0  0  0  0  0  0  0
   10.7891   -2.0497   25.0179 C   0  0  0  0  0  0  0  0  0  0  0  0
    3.1990   -5.9901   26.2499 C   0  0  0  0  0  0  0  0  0  0  0  0
    1.8743   -7.3714   22.7733 C   0  0  0  0  0  0  0  0  0  0  0  0
    2.7719   -7.1153   23.9474 N   0  0  0  0  0  0  0  0  0  0  0  0
    2.3013   -6.2462   25.0758 C   0  0  0  0  0  0  0  0  0  0  0  0
    0.9330   -5.6332   25.0300 O   0  0  0  0  0  0  0  0  0  0  0  0
    3.6700   -7.5176   23.9775 H   0  0  0  0  0  0  0  0  0  0  0  0
    6.1643   -5.8864   24.5522 C   0  0  0  0  0  0  0  0  0  0  0  0
    5.6026   -6.2369   23.2063 O   0  0  0  0  0  0  0  0  0  0  0  0
    6.4738   -6.1624   21.9875 C   0  0  0  0  0  0  0  0  0  0  0  0
 29 30  1  0  0  0
 30 31  1  0  0  0
 31 32  2  0  0  0
 31 28  1  0  0  0
 28  1  1  0  0  0
  1  2  1  0  0  0
  3  2  1  0  0  0
  3  4  1  0  0  0
  4  5  2  0  0  0
  4  6  1  0  0  0
  6 18  1  0  0  0
 18 19  2  0  0  0
 19 20  1  0  0  0
 20 21  2  0  0  0
 21 22  1  0  0  0
 22 23  2  0  0  0
 23 24  1  0  0  0
 24 25  2  0  0  0
 25 26  1  0  0  0
 26 27  2  0  0  0
  6  7  1  0  0  0
  7  8  1  0  0  0
  8 34  1  0  0  0
 34 35  1  0  0  0
 35 36  1  0  0  0
  3  9  1  0  0  0
  9 10  2  0  0  0
 10 11  1  0  0  0
 11 12  1  0  0  0
 11 13  2  0  0  0
 13 14  1  0  0  0
 14 15  2  0  0  0
 15 16  1  0  0  0
 16 17  2  0  0  0
 16  1  1  0  0  0
  8  3  1  0  0  0
 15  9  1  0  0  0
 27 18  1  0  0  0
 27 22  1  0  0  0
 30 33  1  0  0  0
M  END
> <minimizedAffinity>
-7.11778

> <CNNscore>
0.3521282971

> <CNNaffinity>
6.2708487511

> <CNN_VS>
2.2081432343

> <CNNaffinity_variance>
0.0602079518

$$$$



 36 40  0  0  0  0  0  0  0  0999 V2000
    7.5289    4.5039   23.7867 N   0  0  0  0  0  0  0  0  0  0  0  0
    8.2987    3.2558   23.4713 C   0  0  0  0  0  0  0  0  0  0  0  0
    8.0636    2.0078   24.2695 C   0  0  0  0  0  0  0  0  0  0  0  0
    7.9369    0.6912   24.9771 C   0  0  0  0  0  0  0  0  0  0  0  0
    7.3148    0.1795   25.8868 O   0  0  0  0  0  0  0  0  0  0  0  0
    8.8903   -0.2732   24.3361 N   0  0  0  0  0  0  0  0  0  0  0  0
    9.6063    0.4473   23.2324 C   0  0  0  0  0  0  0  0  0  0  0  0
    9.0954    1.8570   23.1912 C   0  0  0  0  0  0  0  0  0  0  0  0
    7.0586    2.0079   25.3831 C   0  0  0  0  0  0  0  0  0  0  0  0
    6.8234    0.7598   26.1813 C   0  0  0  0  0  0  0  0  0  0  0  0
    5.8184    0.7600   27.2948 C   0  0  0  0  0  0  0  0  0  0  0  0
    5.5832   -0.4881   28.0930 Cl  0  0  0  0  0  0  0  0  0  0  0  0
    5.0486    2.0081   27.6101 C   0  0  0  0  0  0  0  0  0  0  0  0
    5.2837    3.2562   26.8120 C   0  0  0  0  0  0  0  0  0  0  0  0
    6.2887    3.2560   25.6984 C   0  0  0  0  0  0  0  0  0  0  0  0
    6.5239    4.5041   24.9002 C   0  0  0  0  0  0  0  0  0  0  0  0
    5.7541    5.7522   25.2155 O   0  0  0  0  0  0  0  0  0  0  0  0
    9.0922   -1.7065   24.7298 C   0  0  0  0  0  0  0  0  0  0  0  0
    7.9831   -2.6990   24.5431 C   0  0  0  0  0  0  0  0  0  0  0  0
    8.1850   -4.1322   24.9367 N   0  0  0  0  0  0  0  0  0  0  0  0
    9.4961   -4.5730   25.5171 C   0  0  0  0  0  0  0  0  0  0  0  0
   10.6052   -3.5805   25.7038 C   0  0  0  0  0  0  0  0  0  0  0  0
   11.9163   -4.0213   26.2842 C   0  0  0  0  0  0  0  0  0  0  0  0
   13.0253   -3.0288   26.4709 C   0  0  0  0  0  0  0  0  0  0  0  0
   12.8234   -1.5955   26.0772 C   0  0  0  0  0  0  0  0  0  0  0  0
   11.5124   -1.1547   25.4969 C   0  0  0  0  0  0  0  0  0  0  0  0
   10.4033   -2.1472   25.3102 C   0  0  0  0  0  0  0  0  0  0  0  0
    7.7641    5.7520   22.9885 C   0  0  0  0  0  0  0  0  0  0  0  0
   11.2745    7.5188   22.4358 C   0  0  0  0  0  0  0  0  0  0  0  0
   10.0509    6.6880   22.1857 N   0  0  0  0  0  0  0  0  0  0  0  0
    8.9877    6.5828   23.2386 C   0  0  0  0  0  0  0  0  0  0  0  0
    9.1481    7.3083   24.5416 O   0  0  0  0  0  0  0  0  0  0  0  0
    9.9456    6.2118   21.3305 H   0  0  0  0  0  0  0  0  0  0  0  0
    9.5384    2.9279   22.2389 C   0  0  0  0  0  0  0  0  0  0  0  0
   10.9963    3.1032   21.9330 O   0  0  0  0  0  0  0  0  0  0  0  0
   11.9156    3.6814   22.9677 C   0  0  0  0  0  0  0  0  0  0  0  0
 29 30  1  0  0  0
 30 31  1  0  0  0
 31 32  2  0  0  0
 31 28  1  0  0  0
 28  1  1  0  0  0
  1  2  1  0  0  0
  3  2  1  0  0  0
  3  4  1  0  0  0
  4  5  2  0  0  0
  4  6  1  0  0  0
  6 18  1  0  0  0
 18 19  2  0  0  0
 19 20  1  0  0  0
 20 21  2  0  0  0
 21 22  1  0  0  0
 22 23  2  0  0  0
 23 24  1  0  0  0
 24 25  2  0  0  0
 25 26  1  0  0  0
 26 27  2  0  0  0
  6  7  1  0  0  0
  7  8  1  0  0  0
  8 34  1  0  0  0
 34 35  1  0  0  0
 35 36  1  0  0  0
  3  9  1  0  0  0
  9 10  2  0  0  0
 10 11  1  0  0  0
 11 12  1  0  0  0
 11 13  2  0  0  0
 13 14  1  0  0  0
 14 15  2  0  0  0
 15 16  1  0  0  0
 16 17  2  0  0  0
 16  1  1  0  0  0
  8  3  1  0  0  0
 15  9  1  0  0  0
 27 18  1  0  0  0
 27 22  1  0  0  0
 30 33  1  0  0  0
M  END
> <minimizedAffinity>
-7.59462

> <CNNscore>
0.3095735013

> <CNNaffinity>
6.1288161278

> <CNN_VS>
1.8973190784

> <CNNaffinity_variance>
0.2712174058

$$$$



 36 40  0  0  0  0  0  0  0  0999 V2000
    4.4687    1.9360   22.5874 N   0  0  0  0  0  0  0  0  0  0  0  0
    5.8435    1.3553   22.7380 C   0  0  0  0  0  0  0  0  0  0  0  0
    6.1242    0.3657   23.8298 C   0  0  0  0  0  0  0  0  0  0  0  0
    6.5524   -0.6288   24.8679 C   0  0  0  0  0  0  0  0  0  0  0  0
    6.0953   -1.2483   25.8078 O   0  0  0  0  0  0  0  0  0  0  0  0
    8.0050   -0.9317   24.6484 N   0  0  0  0  0  0  0  0  0  0  0  0
    8.4746   -0.1243   23.4746 C   0  0  0  0  0  0  0  0  0  0  0  0
    7.3122    0.6775   22.9687 C   0  0  0  0  0  0  0  0  0  0  0  0
    5.0301   -0.0431   24.7710 C   0  0  0  0  0  0  0  0  0  0  0  0
    5.3108   -1.0326   25.8628 C   0  0  0  0  0  0  0  0  0  0  0  0
    4.2167   -1.4413   26.8040 C   0  0  0  0  0  0  0  0  0  0  0  0
    4.4974   -2.4309   27.8958 Cl  0  0  0  0  0  0  0  0  0  0  0  0
    2.8419   -0.8605   26.6534 C   0  0  0  0  0  0  0  0  0  0  0  0
    2.5612    0.1290   25.5617 C   0  0  0  0  0  0  0  0  0  0  0  0
    3.6553    0.5377   24.6205 C   0  0  0  0  0  0  0  0  0  0  0  0
    3.3746    1.5273   23.5286 C   0  0  0  0  0  0  0  0  0  0  0  0
    1.9998    2.1081   23.3780 O   0  0  0  0  0  0  0  0  0  0  0  0
    8.8412   -1.8760   25.4601 C   0  0  0  0  0  0  0  0  0  0  0  0
    8.1808   -2.9023   26.3324 C   0  0  0  0  0  0  0  0  0  0  0  0
    9.0170   -3.8467   27.1441 N   0  0  0  0  0  0  0  0  0  0  0  0
   10.5135   -3.7648   27.0836 C   0  0  0  0  0  0  0  0  0  0  0  0
   11.1738   -2.7386   26.2114 C   0  0  0  0  0  0  0  0  0  0  0  0
   12.6705   -2.6567   26.1509 C   0  0  0  0  0  0  0  0  0  0  0  0
   13.3307   -1.6305   25.2786 C   0  0  0  0  0  0  0  0  0  0  0  0
   12.4946   -0.6861   24.4669 C   0  0  0  0  0  0  0  0  0  0  0  0
   10.9980   -0.7680   24.5274 C   0  0  0  0  0  0  0  0  0  0  0  0
   10.3377   -1.7942   25.3996 C   0  0  0  0  0  0  0  0  0  0  0  0
    4.1880    2.9256   21.4956 C   0  0  0  0  0  0  0  0  0  0  0  0
    4.4847    1.0992   17.9847 C   0  0  0  0  0  0  0  0  0  0  0  0
    4.8214    1.5807   19.3649 N   0  0  0  0  0  0  0  0  0  0  0  0
    3.8513    2.4442   20.1154 C   0  0  0  0  0  0  0  0  0  0  0  0
    2.5445    2.8263   19.4858 O   0  0  0  0  0  0  0  0  0  0  0  0
    5.6790    1.3299   19.7781 H   0  0  0  0  0  0  0  0  0  0  0  0
    7.3340    1.6247   21.8059 C   0  0  0  0  0  0  0  0  0  0  0  0
    7.6005    1.1087   20.4229 O   0  0  0  0  0  0  0  0  0  0  0  0
    7.6223   -0.3688   20.1650 C   0  0  0  0  0  0  0  0  0  0  0  0
 29 30  1  0  0  0
 30 31  1  0  0  0
 31 32  2  0  0  0
 31 28  1  0  0  0
 28  1  1  0  0  0
  1  2  1  0  0  0
  3  2  1  0  0  0
  3  4  1  0  0  0
  4  5  2  0  0  0
  4  6  1  0  0  0
  6 18  1  0  0  0
 18 19  2  0  0  0
 19 20  1  0  0  0
 20 21  2  0  0  0
 21 22  1  0  0  0
 22 23  2  0  0  0
 23 24  1  0  0  0
 24 25  2  0  0  0
 25 26  1  0  0  0
 26 27  2  0  0  0
  6  7  1  0  0  0
  7  8  1  0  0  0
  8 34  1  0  0  0
 34 35  1  0  0  0
 35 36  1  0  0  0
  3  9  1  0  0  0
  9 10  2  0  0  0
 10 11  1  0  0  0
 11 12  1  0  0  0
 11 13  2  0  0  0
 13 14  1  0  0  0
 14 15  2  0  0  0
 15 16  1  0  0  0
 16 17  2  0  0  0
 16  1  1  0  0  0
  8  3  1  0  0  0
 15  9  1  0  0  0
 27 18  1  0  0  0
 27 22  1  0  0  0
 30 33  1  0  0  0
M  END
> <minimizedAffinity>
-6.98640

> <CNNscore>
0.3002266586

> <CNNaffinity>
6.2166910172

> <CNN_VS>
1.8664163351

> <CNNaffinity_variance>
0.0684178323

$$$$



 36 40  0  0  0  0  0  0  0  0999 V2000
   10.4720   -0.2230   24.0851 N   0  0  0  0  0  0  0  0  0  0  0  0
    9.8999   -1.5375   24.5264 C   0  0  0  0  0  0  0  0  0  0  0  0
    8.4218   -1.6785   24.7393 C   0  0  0  0  0  0  0  0  0  0  0  0
    6.9720   -1.9690   24.9914 C   0  0  0  0  0  0  0  0  0  0  0  0
    5.8920   -1.4131   24.9592 O   0  0  0  0  0  0  0  0  0  0  0  0
    6.8532   -3.4033   25.4139 N   0  0  0  0  0  0  0  0  0  0  0  0
    8.2296   -3.9994   25.4229 C   0  0  0  0  0  0  0  0  0  0  0  0
    9.1991   -2.9334   25.0060 C   0  0  0  0  0  0  0  0  0  0  0  0
    7.5158   -0.5050   24.5108 C   0  0  0  0  0  0  0  0  0  0  0  0
    6.0377   -0.6461   24.7236 C   0  0  0  0  0  0  0  0  0  0  0  0
    5.1318    0.5273   24.4952 C   0  0  0  0  0  0  0  0  0  0  0  0
    3.6536    0.3863   24.7080 Cl  0  0  0  0  0  0  0  0  0  0  0  0
    5.7039    1.8418   24.0538 C   0  0  0  0  0  0  0  0  0  0  0  0
    7.1820    1.9829   23.8410 C   0  0  0  0  0  0  0  0  0  0  0  0
    8.0879    0.8095   24.0695 C   0  0  0  0  0  0  0  0  0  0  0  0
    9.5661    0.9505   23.8566 C   0  0  0  0  0  0  0  0  0  0  0  0
   10.1382    2.2650   23.4153 O   0  0  0  0  0  0  0  0  0  0  0  0
    5.5812   -4.1164   25.7656 C   0  0  0  0  0  0  0  0  0  0  0  0
    4.8379   -4.8866   24.7148 C   0  0  0  0  0  0  0  0  0  0  0  0
    3.5660   -5.5997   25.0665 N   0  0  0  0  0  0  0  0  0  0  0  0
    3.0374   -5.5425   26.4691 C   0  0  0  0  0  0  0  0  0  0  0  0
    3.7807   -4.7723   27.5199 C   0  0  0  0  0  0  0  0  0  0  0  0
    3.2520   -4.7152   28.9226 C   0  0  0  0  0  0  0  0  0  0  0  0
    3.9954   -3.9449   29.9734 C   0  0  0  0  0  0  0  0  0  0  0  0
    5.2673   -3.2318   29.6217 C   0  0  0  0  0  0  0  0  0  0  0  0
    5.7959   -3.2890   28.2191 C   0  0  0  0  0  0  0  0  0  0  0  0
    5.0526   -4.0592   27.1682 C   0  0  0  0  0  0  0  0  0  0  0  0
   11.9502   -0.0819   23.8723 C   0  0  0  0  0  0  0  0  0  0  0  0
   14.1583   -2.2918   26.3198 C   0  0  0  0  0  0  0  0  0  0  0  0
   13.2245   -1.2272   25.8253 N   0  0  0  0  0  0  0  0  0  0  0  0
   12.8840   -1.1466   24.3667 C   0  0  0  0  0  0  0  0  0  0  0  0
   13.4775   -2.1306   23.4025 O   0  0  0  0  0  0  0  0  0  0  0  0
   12.8350   -0.5814   26.4582 H   0  0  0  0  0  0  0  0  0  0  0  0
   10.6850   -3.0941   24.8782 C   0  0  0  0  0  0  0  0  0  0  0  0
   11.4754   -3.6849   26.0078 O   0  0  0  0  0  0  0  0  0  0  0  0
   10.8416   -4.6930   26.9200 C   0  0  0  0  0  0  0  0  0  0  0  0
 29 30  1  0  0  0
 30 31  1  0  0  0
 31 32  2  0  0  0
 31 28  1  0  0  0
 28  1  1  0  0  0
  1  2  1  0  0  0
  3  2  1  0  0  0
  3  4  1  0  0  0
  4  5  2  0  0  0
  4  6  1  0  0  0
  6 18  1  0  0  0
 18 19  2  0  0  0
 19 20  1  0  0  0
 20 21  2  0  0  0
 21 22  1  0  0  0
 22 23  2  0  0  0
 23 24  1  0  0  0
 24 25  2  0  0  0
 25 26  1  0  0  0
 26 27  2  0  0  0
  6  7  1  0  0  0
  7  8  1  0  0  0
  8 34  1  0  0  0
 34 35  1  0  0  0
 35 36  1  0  0  0
  3  9  1  0  0  0
  9 10  2  0  0  0
 10 11  1  0  0  0
 11 12  1  0  0  0
 11 13  2  0  0  0
 13 14  1  0  0  0
 14 15  2  0  0  0
 15 16  1  0  0  0
 16 17  2  0  0  0
 16  1  1  0  0  0
  8  3  1  0  0  0
 15  9  1  0  0  0
 27 18  1  0  0  0
 27 22  1  0  0  0
 30 33  1  0  0  0
M  END
> <minimizedAffinity>
-6.94098

> <CNNscore>
0.2777617574

> <CNNaffinity>
6.3865289688

> <CNN_VS>
1.7739335299

> <CNNaffinity_variance>
0.2079807818

$$$$



 36 40  0  0  0  0  0  0  0  0999 V2000
    6.1536    1.1082   21.2170 N   0  0  0  0  0  0  0  0  0  0  0  0
    7.4750    1.1630   21.9249 C   0  0  0  0  0  0  0  0  0  0  0  0
    8.0529   -0.0812   22.5316 C   0  0  0  0  0  0  0  0  0  0  0  0
    8.7523   -1.2368   23.1838 C   0  0  0  0  0  0  0  0  0  0  0  0
    8.6005   -2.4263   23.3796 O   0  0  0  0  0  0  0  0  0  0  0  0
   10.0385   -0.7311   23.7668 N   0  0  0  0  0  0  0  0  0  0  0  0
   10.1340    0.7372   23.4750 C   0  0  0  0  0  0  0  0  0  0  0  0
    8.9069    1.1388   22.7116 C   0  0  0  0  0  0  0  0  0  0  0  0
    7.3095   -1.3801   22.4304 C   0  0  0  0  0  0  0  0  0  0  0  0
    7.8875   -2.6243   23.0370 C   0  0  0  0  0  0  0  0  0  0  0  0
    7.1441   -3.9231   22.9358 C   0  0  0  0  0  0  0  0  0  0  0  0
    7.7220   -5.1674   23.5425 Cl  0  0  0  0  0  0  0  0  0  0  0  0
    5.8228   -3.9779   22.2279 C   0  0  0  0  0  0  0  0  0  0  0  0
    5.2448   -2.7337   21.6212 C   0  0  0  0  0  0  0  0  0  0  0  0
    5.9882   -1.4349   21.7225 C   0  0  0  0  0  0  0  0  0  0  0  0
    5.4103   -0.1907   21.1158 C   0  0  0  0  0  0  0  0  0  0  0  0
    4.0889   -0.2454   20.4079 O   0  0  0  0  0  0  0  0  0  0  0  0
   11.0513   -1.5498   24.5111 C   0  0  0  0  0  0  0  0  0  0  0  0
   12.4939   -1.5115   24.1017 C   0  0  0  0  0  0  0  0  0  0  0  0
   13.5067   -2.3302   24.8460 N   0  0  0  0  0  0  0  0  0  0  0  0
   13.0769   -3.1873   25.9995 C   0  0  0  0  0  0  0  0  0  0  0  0
   11.6343   -3.2256   26.4088 C   0  0  0  0  0  0  0  0  0  0  0  0
   11.2046   -4.0828   27.5624 C   0  0  0  0  0  0  0  0  0  0  0  0
    9.7620   -4.1211   27.9717 C   0  0  0  0  0  0  0  0  0  0  0  0
    8.7492   -3.3023   27.2275 C   0  0  0  0  0  0  0  0  0  0  0  0
    9.1789   -2.4452   26.0739 C   0  0  0  0  0  0  0  0  0  0  0  0
   10.6215   -2.4069   25.6646 C   0  0  0  0  0  0  0  0  0  0  0  0
    5.5757    2.3524   20.6104 C   0  0  0  0  0  0  0  0  0  0  0  0
    1.7120    2.4991   19.7158 C   0  0  0  0  0  0  0  0  0  0  0  0
    2.9892    2.5701   20.4992 N   0  0  0  0  0  0  0  0  0  0  0  0
    4.2985    2.2814   19.8269 C   0  0  0  0  0  0  0  0  0  0  0  0
    4.3308    1.9215   18.3710 O   0  0  0  0  0  0  0  0  0  0  0  0
    2.9680    2.8063   21.4548 H   0  0  0  0  0  0  0  0  0  0  0  0
    8.5894    2.5183   22.2153 C   0  0  0  0  0  0  0  0  0  0  0  0
    8.8717    3.7102   23.0810 O   0  0  0  0  0  0  0  0  0  0  0  0
    7.7675    4.6652   23.4258 C   0  0  0  0  0  0  0  0  0  0  0  0
 29 30  1  0  0  0
 30 31  1  0  0  0
 31 32  2  0  0  0
 31 28  1  0  0  0
 28  1  1  0  0  0
  1  2  1  0  0  0
  3  2  1  0  0  0
  3  4  1  0  0  0
  4  5  2  0  0  0
  4  6  1  0  0  0
  6 18  1  0  0  0
 18 19  2  0  0  0
 19 20  1  0  0  0
 20 21  2  0  0  0
 21 22  1  0  0  0
 22 23  2  0  0  0
 23 24  1  0  0  0
 24 25  2  0  0  0
 25 26  1  0  0  0
 26 27  2  0  0  0
  6  7  1  0  0  0
  7  8  1  0  0  0
  8 34  1  0  0  0
 34 35  1  0  0  0
 35 36  1  0  0  0
  3  9  1  0  0  0
  9 10  2  0  0  0
 10 11  1  0  0  0
 11 12  1  0  0  0
 11 13  2  0  0  0
 13 14  1  0  0  0
 14 15  2  0  0  0
 15 16  1  0  0  0
 16 17  2  0  0  0
 16  1  1  0  0  0
  8  3  1  0  0  0
 15  9  1  0  0  0
 27 18  1  0  0  0
 27 22  1  0  0  0
 30 33  1  0  0  0
M  END
> <minimizedAffinity>
-7.00332

> <CNNscore>
0.2629534900

> <CNNaffinity>
6.4400749207

> <CNN_VS>
1.6934401989

> <CNNaffinity_variance>
0.0752901062

$$$$



 36 40  0  0  0  0  0  0  0  0999 V2000
   10.8540    1.6065   22.6921 N   0  0  0  0  0  0  0  0  0  0  0  0
    9.4597    1.1846   23.0498 C   0  0  0  0  0  0  0  0  0  0  0  0
    9.2386   -0.0338   23.8963 C   0  0  0  0  0  0  0  0  0  0  0  0
    8.8638   -1.2229   24.7303 C   0  0  0  0  0  0  0  0  0  0  0  0
    9.3868   -2.1391   25.3330 O   0  0  0  0  0  0  0  0  0  0  0  0
    7.3679   -1.2646   24.8322 N   0  0  0  0  0  0  0  0  0  0  0  0
    6.8181   -0.1012   24.0613 C   0  0  0  0  0  0  0  0  0  0  0  0
    7.9743    0.6594   23.4829 C   0  0  0  0  0  0  0  0  0  0  0  0
   10.4119   -0.8304   24.3851 C   0  0  0  0  0  0  0  0  0  0  0  0
   10.1909   -2.0488   25.2316 C   0  0  0  0  0  0  0  0  0  0  0  0
   11.3641   -2.8453   25.7204 C   0  0  0  0  0  0  0  0  0  0  0  0
   11.1431   -4.0638   26.5670 Cl  0  0  0  0  0  0  0  0  0  0  0  0
   12.7584   -2.4234   25.3627 C   0  0  0  0  0  0  0  0  0  0  0  0
   12.9795   -1.2051   24.5162 C   0  0  0  0  0  0  0  0  0  0  0  0
   11.8062   -0.4085   24.0274 C   0  0  0  0  0  0  0  0  0  0  0  0
   12.0272    0.8100   23.1809 C   0  0  0  0  0  0  0  0  0  0  0  0
   13.4215    1.2318   22.8232 O   0  0  0  0  0  0  0  0  0  0  0  0
    6.5630   -2.2897   25.5748 C   0  0  0  0  0  0  0  0  0  0  0  0
    6.0453   -1.9851   26.9493 C   0  0  0  0  0  0  0  0  0  0  0  0
    5.2404   -3.0102   27.6918 N   0  0  0  0  0  0  0  0  0  0  0  0
    4.9533   -4.3399   27.0599 C   0  0  0  0  0  0  0  0  0  0  0  0
    5.4711   -4.6445   25.6854 C   0  0  0  0  0  0  0  0  0  0  0  0
    5.1840   -5.9744   25.0535 C   0  0  0  0  0  0  0  0  0  0  0  0
    5.7017   -6.2789   23.6790 C   0  0  0  0  0  0  0  0  0  0  0  0
    6.5066   -5.2538   22.9364 C   0  0  0  0  0  0  0  0  0  0  0  0
    6.7937   -3.9241   23.5684 C   0  0  0  0  0  0  0  0  0  0  0  0
    6.2759   -3.6194   24.9429 C   0  0  0  0  0  0  0  0  0  0  0  0
   11.0750    2.8250   21.8456 C   0  0  0  0  0  0  0  0  0  0  0  0
   10.6017    6.4182   23.4624 C   0  0  0  0  0  0  0  0  0  0  0  0
   10.2858    5.1025   22.8151 N   0  0  0  0  0  0  0  0  0  0  0  0
   11.3909    4.1407   22.4929 C   0  0  0  0  0  0  0  0  0  0  0  0
   12.8118    4.4947   22.8180 O   0  0  0  0  0  0  0  0  0  0  0  0
    9.3532    4.8701   22.6017 H   0  0  0  0  0  0  0  0  0  0  0  0
    7.8823    1.8962   22.6391 C   0  0  0  0  0  0  0  0  0  0  0  0
    7.4570    1.7954   21.2043 O   0  0  0  0  0  0  0  0  0  0  0  0
    6.9485    0.4923   20.6625 C   0  0  0  0  0  0  0  0  0  0  0  0
 29 30  1  0  0  0
 30 31  1  0  0  0
 31 32  2  0  0  0
 31 28  1  0  0  0
 28  1  1  0  0  0
  1  2  1  0  0  0
  3  2  1  0  0  0
  3  4  1  0  0  0
  4  5  2  0  0  0
  4  6  1  0  0  0
  6 18  1  0  0  0
 18 19  2  0  0  0
 19 20  1  0  0  0
 20 21  2  0  0  0
 21 22  1  0  0  0
 22 23  2  0  0  0
 23 24  1  0  0  0
 24 25  2  0  0  0
 25 26  1  0  0  0
 26 27  2  0  0  0
  6  7  1  0  0  0
  7  8  1  0  0  0
  8 34  1  0  0  0
 34 35  1  0  0  0
 35 36  1  0  0  0
  3  9  1  0  0  0
  9 10  2  0  0  0
 10 11  1  0  0  0
 11 12  1  0  0  0
 11 13  2  0  0  0
 13 14  1  0  0  0
 14 15  2  0  0  0
 15 16  1  0  0  0
 16 17  2  0  0  0
 16  1  1  0  0  0
  8  3  1  0  0  0
 15  9  1  0  0  0
 27 18  1  0  0  0
 27 22  1  0  0  0
 30 33  1  0  0  0
M  END
> <minimizedAffinity>
-8.01316

> <CNNscore>
0.2613303363

> <CNNaffinity>
6.5488176346

> <CNN_VS>
1.7114046812

> <CNNaffinity_variance>
0.2134950608

$$$$
