


 37 41  0  0  0  0  0  0  0  0999 V2000
   -7.2476   -1.6046  -22.3527 N   0  0  0  0  0  0  0  0  0  0  0  0
   -6.5846   -0.9299  -21.1887 C   0  0  0  0  0  0  0  0  0  0  0  0
   -7.3963   -0.0926  -20.2452 O   0  0  0  0  0  0  0  0  0  0  0  0
  -10.3902    2.5614  -23.7737 C   0  0  0  0  0  0  0  0  0  0  0  0
   -8.9155    2.3989  -23.5531 O   0  0  0  0  0  0  0  0  0  0  0  0
  -11.3090    1.3894  -23.5943 N   0  0  0  0  0  0  0  0  0  0  0  0
  -12.7838    1.5518  -23.8149 C   0  0  0  0  0  0  0  0  0  0  0  0
  -13.7026    0.3798  -23.6354 C   0  0  0  0  0  0  0  0  0  0  0  0
  -13.1467   -0.9546  -23.2353 C   0  0  0  0  0  0  0  0  0  0  0  0
  -11.6719   -1.1171  -23.0147 C   0  0  0  0  0  0  0  0  0  0  0  0
  -11.1159   -2.4516  -22.6146 C   0  0  0  0  0  0  0  0  0  0  0  0
   -9.6412   -2.6141  -22.3939 C   0  0  0  0  0  0  0  0  0  0  0  0
   -8.7224   -1.4421  -22.5734 C   0  0  0  0  0  0  0  0  0  0  0  0
   -9.2783   -0.1076  -22.9735 C   0  0  0  0  0  0  0  0  0  0  0  0
  -10.7531    0.0549  -23.1942 C   0  0  0  0  0  0  0  0  0  0  0  0
  -10.3066    5.1560  -23.6710 C   0  0  0  0  0  0  0  0  0  0  0  0
  -10.9461    3.8958  -24.1738 C   0  0  0  0  0  0  0  0  0  0  0  0
   -6.4359   -2.4419  -23.2962 C   0  0  0  0  0  0  0  0  0  0  0  0
   -6.5854   -3.9344  -23.2927 C   0  0  0  0  0  0  0  0  0  0  0  0
   -7.2737   -4.6219  -24.4344 C   0  0  0  0  0  0  0  0  0  0  0  0
   -7.4232   -6.1144  -24.4309 C   0  0  0  0  0  0  0  0  0  0  0  0
   -6.8843   -6.9195  -23.2856 C   0  0  0  0  0  0  0  0  0  0  0  0
   -6.1961   -6.2320  -22.1438 C   0  0  0  0  0  0  0  0  0  0  0  0
   -5.6573   -7.0369  -20.9986 Cl  0  0  0  0  0  0  0  0  0  0  0  0
   -6.0466   -4.7394  -22.1474 C   0  0  0  0  0  0  0  0  0  0  0  0
   -5.1099   -1.0924  -20.9681 C   0  0  0  0  0  0  0  0  0  0  0  0
   -4.2364    0.1176  -20.8155 C   0  0  0  0  0  0  0  0  0  0  0  0
   -4.0627    0.7520  -19.4675 C   0  0  0  0  0  0  0  0  0  0  0  0
   -3.1894    1.9619  -19.3150 N   0  0  0  0  0  0  0  0  0  0  0  0
   -2.4897    2.5374  -20.5105 C   0  0  0  0  0  0  0  0  0  0  0  0
   -2.6634    1.9029  -21.8586 C   0  0  0  0  0  0  0  0  0  0  0  0
   -1.9637    2.4783  -23.0541 C   0  0  0  0  0  0  0  0  0  0  0  0
   -1.0903    3.6882  -22.9016 F   0  0  0  0  0  0  0  0  0  0  0  0
   -2.1374    1.8439  -24.4022 C   0  0  0  0  0  0  0  0  0  0  0  0
   -3.0108    0.6339  -24.5547 C   0  0  0  0  0  0  0  0  0  0  0  0
   -3.7105    0.0585  -23.3592 C   0  0  0  0  0  0  0  0  0  0  0  0
   -3.5367    0.6930  -22.0111 C   0  0  0  0  0  0  0  0  0  0  0  0
 16 17  1  0  0  0
 17  4  1  0  0  0
  4  5  2  0  0  0
  4  6  1  0  0  0
  6  7  1  0  0  0
  7  8  1  0  0  0
  8  9  1  0  0  0
  9 10  1  0  0  0
 10 11  2  0  0  0
 11 12  1  0  0  0
 12 13  2  0  0  0
 13  1  1  0  0  0
  1 18  1  0  0  0
 18 19  1  0  0  0
 19 20  2  0  0  0
 20 21  1  0  0  0
 21 22  2  0  0  0
 22 23  1  0  0  0
 23 24  1  0  0  0
 23 25  2  0  0  0
  1  2  1  0  0  0
  2  3  2  0  0  0
  2 26  1  0  0  0
 26 27  1  0  0  0
 27 28  2  0  0  0
 28 29  1  0  0  0
 29 30  2  0  0  0
 30 31  1  0  0  0
 31 32  2  0  0  0
 32 33  1  0  0  0
 32 34  1  0  0  0
 34 35  2  0  0  0
 35 36  1  0  0  0
 36 37  2  0  0  0
 13 14  1  0  0  0
 14 15  2  0  0  0
 15  6  1  0  0  0
 15 10  1  0  0  0
 25 19  1  0  0  0
 37 27  1  0  0  0
 37 31  1  0  0  0
M  END
> <minimizedAffinity>
-8.45909

> <CNNscore>
0.3800604939

> <CNNaffinity>
6.6540589333

> <CNN_VS>
2.5289449692

> <CNNaffinity_variance>
0.2571865916

$$$$



 37 41  0  0  0  0  0  0  0  0999 V2000
   -6.9225   -1.3574  -22.6267 N   0  0  0  0  0  0  0  0  0  0  0  0
   -8.3568   -1.1617  -22.2337 C   0  0  0  0  0  0  0  0  0  0  0  0
   -8.7072   -0.2232  -21.1173 O   0  0  0  0  0  0  0  0  0  0  0  0
   -2.0813    0.5666  -24.0799 C   0  0  0  0  0  0  0  0  0  0  0  0
   -3.1652   -0.1761  -24.8034 O   0  0  0  0  0  0  0  0  0  0  0  0
   -2.2498    0.9156  -22.6308 N   0  0  0  0  0  0  0  0  0  0  0  0
   -1.1660    1.6584  -21.9073 C   0  0  0  0  0  0  0  0  0  0  0  0
   -1.3345    2.0074  -20.4582 C   0  0  0  0  0  0  0  0  0  0  0  0
   -2.5868    1.6136  -19.7327 C   0  0  0  0  0  0  0  0  0  0  0  0
   -3.6707    0.8709  -20.4562 C   0  0  0  0  0  0  0  0  0  0  0  0
   -4.9232    0.4771  -19.7306 C   0  0  0  0  0  0  0  0  0  0  0  0
   -6.0071   -0.2656  -20.4541 C   0  0  0  0  0  0  0  0  0  0  0  0
   -5.8385   -0.6146  -21.9032 C   0  0  0  0  0  0  0  0  0  0  0  0
   -4.5862   -0.2209  -22.6287 C   0  0  0  0  0  0  0  0  0  0  0  0
   -3.5022    0.5219  -21.9052 C   0  0  0  0  0  0  0  0  0  0  0  0
    0.3166   -0.0032  -24.9015 C   0  0  0  0  0  0  0  0  0  0  0  0
   -0.8289    0.9603  -24.8054 C   0  0  0  0  0  0  0  0  0  0  0  0
   -6.5721   -2.2959  -23.7431 C   0  0  0  0  0  0  0  0  0  0  0  0
   -6.7819   -3.7717  -23.5761 C   0  0  0  0  0  0  0  0  0  0  0  0
   -7.6307   -4.5243  -24.5575 C   0  0  0  0  0  0  0  0  0  0  0  0
   -7.8406   -6.0001  -24.3904 C   0  0  0  0  0  0  0  0  0  0  0  0
   -7.2016   -6.7233  -23.2420 C   0  0  0  0  0  0  0  0  0  0  0  0
   -6.3528   -5.9707  -22.2607 C   0  0  0  0  0  0  0  0  0  0  0  0
   -5.7138   -6.6938  -21.1123 Cl  0  0  0  0  0  0  0  0  0  0  0  0
   -6.1430   -4.4948  -22.4278 C   0  0  0  0  0  0  0  0  0  0  0  0
   -9.4407   -1.9044  -22.9572 C   0  0  0  0  0  0  0  0  0  0  0  0
  -10.8226   -1.3262  -23.0356 C   0  0  0  0  0  0  0  0  0  0  0  0
  -12.0122   -2.1792  -22.7081 C   0  0  0  0  0  0  0  0  0  0  0  0
  -13.3940   -1.6009  -22.7865 N   0  0  0  0  0  0  0  0  0  0  0  0
  -13.5862   -0.1697  -23.1924 C   0  0  0  0  0  0  0  0  0  0  0  0
  -12.3966    0.6832  -23.5199 C   0  0  0  0  0  0  0  0  0  0  0  0
  -12.5888    2.1144  -23.9258 C   0  0  0  0  0  0  0  0  0  0  0  0
  -13.9707    2.6926  -24.0042 F   0  0  0  0  0  0  0  0  0  0  0  0
  -11.3993    2.9673  -24.2533 C   0  0  0  0  0  0  0  0  0  0  0  0
  -10.0173    2.3891  -24.1750 C   0  0  0  0  0  0  0  0  0  0  0  0
   -9.8251    0.9579  -23.7691 C   0  0  0  0  0  0  0  0  0  0  0  0
  -11.0148    0.1050  -23.4415 C   0  0  0  0  0  0  0  0  0  0  0  0
 16 17  1  0  0  0
 17  4  1  0  0  0
  4  5  2  0  0  0
  4  6  1  0  0  0
  6  7  1  0  0  0
  7  8  1  0  0  0
  8  9  1  0  0  0
  9 10  1  0  0  0
 10 11  2  0  0  0
 11 12  1  0  0  0
 12 13  2  0  0  0
 13  1  1  0  0  0
  1 18  1  0  0  0
 18 19  1  0  0  0
 19 20  2  0  0  0
 20 21  1  0  0  0
 21 22  2  0  0  0
 22 23  1  0  0  0
 23 24  1  0  0  0
 23 25  2  0  0  0
  1  2  1  0  0  0
  2  3  2  0  0  0
  2 26  1  0  0  0
 26 27  1  0  0  0
 27 28  2  0  0  0
 28 29  1  0  0  0
 29 30  2  0  0  0
 30 31  1  0  0  0
 31 32  2  0  0  0
 32 33  1  0  0  0
 32 34  1  0  0  0
 34 35  2  0  0  0
 35 36  1  0  0  0
 36 37  2  0  0  0
 13 14  1  0  0  0
 14 15  2  0  0  0
 15  6  1  0  0  0
 15 10  1  0  0  0
 25 19  1  0  0  0
 37 27  1  0  0  0
 37 31  1  0  0  0
M  END
> <minimizedAffinity>
-8.36391

> <CNNscore>
0.3037396967

> <CNNaffinity>
6.4053955078

> <CNN_VS>
1.9455728531

> <CNNaffinity_variance>
0.2391888797

$$$$



 37 41  0  0  0  0  0  0  0  0999 V2000
   -8.8347   -2.1941  -23.9523 N   0  0  0  0  0  0  0  0  0  0  0  0
   -7.9255   -1.0076  -24.0763 C   0  0  0  0  0  0  0  0  0  0  0  0
   -7.0123   -0.8830  -25.2598 O   0  0  0  0  0  0  0  0  0  0  0  0
   -4.9445   -4.5883  -26.8478 C   0  0  0  0  0  0  0  0  0  0  0  0
   -4.9484   -3.5265  -25.7885 O   0  0  0  0  0  0  0  0  0  0  0  0
   -6.2361   -5.2062  -27.2952 N   0  0  0  0  0  0  0  0  0  0  0  0
   -6.2323   -6.2680  -28.3546 C   0  0  0  0  0  0  0  0  0  0  0  0
   -7.5239   -6.8858  -28.8019 C   0  0  0  0  0  0  0  0  0  0  0  0
   -8.8193   -6.4418  -28.1899 C   0  0  0  0  0  0  0  0  0  0  0  0
   -8.8231   -5.3799  -27.1305 C   0  0  0  0  0  0  0  0  0  0  0  0
  -10.1186   -4.9358  -26.5184 C   0  0  0  0  0  0  0  0  0  0  0  0
  -10.1224   -3.8739  -25.4591 C   0  0  0  0  0  0  0  0  0  0  0  0
   -8.8309   -3.2561  -25.0117 C   0  0  0  0  0  0  0  0  0  0  0  0
   -7.5354   -3.7001  -25.6237 C   0  0  0  0  0  0  0  0  0  0  0  0
   -7.5315   -4.7621  -26.6832 C   0  0  0  0  0  0  0  0  0  0  0  0
   -2.5425   -5.5429  -26.5853 C   0  0  0  0  0  0  0  0  0  0  0  0
   -3.6491   -5.0324  -27.4599 C   0  0  0  0  0  0  0  0  0  0  0  0
   -9.7479   -2.3188  -22.7688 C   0  0  0  0  0  0  0  0  0  0  0  0
  -11.1493   -1.7892  -22.8437 C   0  0  0  0  0  0  0  0  0  0  0  0
  -12.3028   -2.6606  -22.4436 C   0  0  0  0  0  0  0  0  0  0  0  0
  -13.7042   -2.1310  -22.5185 C   0  0  0  0  0  0  0  0  0  0  0  0
  -13.9521   -0.7299  -22.9937 C   0  0  0  0  0  0  0  0  0  0  0  0
  -12.7986    0.1415  -23.3938 C   0  0  0  0  0  0  0  0  0  0  0  0
  -13.0465    1.5424  -23.8689 Cl  0  0  0  0  0  0  0  0  0  0  0  0
  -11.3972   -0.3882  -23.3188 C   0  0  0  0  0  0  0  0  0  0  0  0
   -7.9294    0.0542  -23.0169 C   0  0  0  0  0  0  0  0  0  0  0  0
   -6.6508    0.7420  -22.6396 C   0  0  0  0  0  0  0  0  0  0  0  0
   -5.9563    1.6296  -23.6294 C   0  0  0  0  0  0  0  0  0  0  0  0
   -4.6778    2.3174  -23.2521 N   0  0  0  0  0  0  0  0  0  0  0  0
   -4.0939    2.1175  -21.8850 C   0  0  0  0  0  0  0  0  0  0  0  0
   -4.7884    1.2299  -20.8952 C   0  0  0  0  0  0  0  0  0  0  0  0
   -4.2044    1.0301  -19.5281 C   0  0  0  0  0  0  0  0  0  0  0  0
   -2.9259    1.7178  -19.1508 F   0  0  0  0  0  0  0  0  0  0  0  0
   -4.8989    0.1425  -18.5382 C   0  0  0  0  0  0  0  0  0  0  0  0
   -6.1775   -0.5453  -18.9155 C   0  0  0  0  0  0  0  0  0  0  0  0
   -6.7614   -0.3455  -20.2827 C   0  0  0  0  0  0  0  0  0  0  0  0
   -6.0669    0.5422  -21.2725 C   0  0  0  0  0  0  0  0  0  0  0  0
 16 17  1  0  0  0
 17  4  1  0  0  0
  4  5  2  0  0  0
  4  6  1  0  0  0
  6  7  1  0  0  0
  7  8  1  0  0  0
  8  9  1  0  0  0
  9 10  1  0  0  0
 10 11  2  0  0  0
 11 12  1  0  0  0
 12 13  2  0  0  0
 13  1  1  0  0  0
  1 18  1  0  0  0
 18 19  1  0  0  0
 19 20  2  0  0  0
 20 21  1  0  0  0
 21 22  2  0  0  0
 22 23  1  0  0  0
 23 24  1  0  0  0
 23 25  2  0  0  0
  1  2  1  0  0  0
  2  3  2  0  0  0
  2 26  1  0  0  0
 26 27  1  0  0  0
 27 28  2  0  0  0
 28 29  1  0  0  0
 29 30  2  0  0  0
 30 31  1  0  0  0
 31 32  2  0  0  0
 32 33  1  0  0  0
 32 34  1  0  0  0
 34 35  2  0  0  0
 35 36  1  0  0  0
 36 37  2  0  0  0
 13 14  1  0  0  0
 14 15  2  0  0  0
 15  6  1  0  0  0
 15 10  1  0  0  0
 25 19  1  0  0  0
 37 27  1  0  0  0
 37 31  1  0  0  0
M  END
> <minimizedAffinity>
-8.02654

> <CNNscore>
0.2102069408

> <CNNaffinity>
6.3418583870

> <CNN_VS>
1.3331027031

> <CNNaffinity_variance>
0.2063043118

$$$$



 37 41  0  0  0  0  0  0  0  0999 V2000
   -9.8596   -0.2077  -22.6702 N   0  0  0  0  0  0  0  0  0  0  0  0
   -8.5864    0.2329  -22.0110 C   0  0  0  0  0  0  0  0  0  0  0  0
   -8.3074    1.6943  -21.8200 O   0  0  0  0  0  0  0  0  0  0  0  0
   -9.4333    4.7875  -24.6990 C   0  0  0  0  0  0  0  0  0  0  0  0
   -8.4389    3.7668  -24.2308 O   0  0  0  0  0  0  0  0  0  0  0  0
  -10.9012    4.4834  -24.6472 N   0  0  0  0  0  0  0  0  0  0  0  0
  -11.8956    5.5041  -25.1154 C   0  0  0  0  0  0  0  0  0  0  0  0
  -13.3635    5.2001  -25.0636 C   0  0  0  0  0  0  0  0  0  0  0  0
  -13.8371    3.8753  -24.5434 C   0  0  0  0  0  0  0  0  0  0  0  0
  -12.8427    2.8546  -24.0751 C   0  0  0  0  0  0  0  0  0  0  0  0
  -13.3163    1.5297  -23.5549 C   0  0  0  0  0  0  0  0  0  0  0  0
  -12.3219    0.5090  -23.0866 C   0  0  0  0  0  0  0  0  0  0  0  0
  -10.8540    0.8131  -23.1385 C   0  0  0  0  0  0  0  0  0  0  0  0
  -10.3804    2.1378  -23.6587 C   0  0  0  0  0  0  0  0  0  0  0  0
  -11.3748    3.1586  -24.1270 C   0  0  0  0  0  0  0  0  0  0  0  0
   -8.0943    6.9884  -24.3628 C   0  0  0  0  0  0  0  0  0  0  0  0
   -8.9597    6.1123  -25.2192 C   0  0  0  0  0  0  0  0  0  0  0  0
  -10.1386   -1.6692  -22.8611 C   0  0  0  0  0  0  0  0  0  0  0  0
   -9.6692   -2.3662  -24.1036 C   0  0  0  0  0  0  0  0  0  0  0  0
   -8.5702   -1.7670  -24.9301 C   0  0  0  0  0  0  0  0  0  0  0  0
   -8.1008   -2.4640  -26.1725 C   0  0  0  0  0  0  0  0  0  0  0  0
   -8.7305   -3.7604  -26.5886 C   0  0  0  0  0  0  0  0  0  0  0  0
   -9.8295   -4.3596  -25.7621 C   0  0  0  0  0  0  0  0  0  0  0  0
  -10.4592   -5.6559  -26.1781 Cl  0  0  0  0  0  0  0  0  0  0  0  0
  -10.2989   -3.6625  -24.5196 C   0  0  0  0  0  0  0  0  0  0  0  0
   -7.5921   -0.7879  -21.5427 C   0  0  0  0  0  0  0  0  0  0  0  0
   -6.5691   -0.4195  -20.5093 C   0  0  0  0  0  0  0  0  0  0  0  0
   -6.8139   -0.7391  -19.0644 C   0  0  0  0  0  0  0  0  0  0  0  0
   -5.7909   -0.3707  -18.0311 N   0  0  0  0  0  0  0  0  0  0  0  0
   -4.5231    0.3173  -18.4427 C   0  0  0  0  0  0  0  0  0  0  0  0
   -4.2783    0.6369  -19.8876 C   0  0  0  0  0  0  0  0  0  0  0  0
   -3.0106    1.3249  -20.2992 C   0  0  0  0  0  0  0  0  0  0  0  0
   -1.9876    1.6933  -19.2659 F   0  0  0  0  0  0  0  0  0  0  0  0
   -2.7658    1.6445  -21.7442 C   0  0  0  0  0  0  0  0  0  0  0  0
   -3.7888    1.2761  -22.7776 C   0  0  0  0  0  0  0  0  0  0  0  0
   -5.0565    0.5881  -22.3659 C   0  0  0  0  0  0  0  0  0  0  0  0
   -5.3013    0.2685  -20.9209 C   0  0  0  0  0  0  0  0  0  0  0  0
 16 17  1  0  0  0
 17  4  1  0  0  0
  4  5  2  0  0  0
  4  6  1  0  0  0
  6  7  1  0  0  0
  7  8  1  0  0  0
  8  9  1  0  0  0
  9 10  1  0  0  0
 10 11  2  0  0  0
 11 12  1  0  0  0
 12 13  2  0  0  0
 13  1  1  0  0  0
  1 18  1  0  0  0
 18 19  1  0  0  0
 19 20  2  0  0  0
 20 21  1  0  0  0
 21 22  2  0  0  0
 22 23  1  0  0  0
 23 24  1  0  0  0
 23 25  2  0  0  0
  1  2  1  0  0  0
  2  3  2  0  0  0
  2 26  1  0  0  0
 26 27  1  0  0  0
 27 28  2  0  0  0
 28 29  1  0  0  0
 29 30  2  0  0  0
 30 31  1  0  0  0
 31 32  2  0  0  0
 32 33  1  0  0  0
 32 34  1  0  0  0
 34 35  2  0  0  0
 35 36  1  0  0  0
 36 37  2  0  0  0
 13 14  1  0  0  0
 14 15  2  0  0  0
 15  6  1  0  0  0
 15 10  1  0  0  0
 25 19  1  0  0  0
 37 27  1  0  0  0
 37 31  1  0  0  0
M  END
> <minimizedAffinity>
-8.68479

> <CNNscore>
0.1991836280

> <CNNaffinity>
6.2698564529

> <CNN_VS>
1.2488527298

> <CNNaffinity_variance>
0.3392277658

$$$$



 37 41  0  0  0  0  0  0  0  0999 V2000
   -9.8097   -0.9453  -22.9825 N   0  0  0  0  0  0  0  0  0  0  0  0
  -10.9262   -0.0064  -23.3318 C   0  0  0  0  0  0  0  0  0  0  0  0
  -11.9334   -0.3934  -24.3738 O   0  0  0  0  0  0  0  0  0  0  0  0
   -6.3897   -5.1157  -22.5806 C   0  0  0  0  0  0  0  0  0  0  0  0
   -6.4990   -3.7897  -21.8879 O   0  0  0  0  0  0  0  0  0  0  0  0
   -7.3840   -5.4935  -23.6383 N   0  0  0  0  0  0  0  0  0  0  0  0
   -7.2747   -6.8194  -24.3310 C   0  0  0  0  0  0  0  0  0  0  0  0
   -8.2691   -7.1972  -25.3886 C   0  0  0  0  0  0  0  0  0  0  0  0
   -9.3726   -6.2491  -25.7535 C   0  0  0  0  0  0  0  0  0  0  0  0
   -9.4819   -4.9232  -25.0608 C   0  0  0  0  0  0  0  0  0  0  0  0
  -10.5855   -3.9750  -25.4257 C   0  0  0  0  0  0  0  0  0  0  0  0
  -10.6948   -2.6491  -24.7329 C   0  0  0  0  0  0  0  0  0  0  0  0
   -9.7004   -2.2713  -23.6753 C   0  0  0  0  0  0  0  0  0  0  0  0
   -8.5969   -3.2194  -23.3104 C   0  0  0  0  0  0  0  0  0  0  0  0
   -8.4876   -4.5454  -24.0031 C   0  0  0  0  0  0  0  0  0  0  0  0
   -5.4831   -7.0520  -21.1046 C   0  0  0  0  0  0  0  0  0  0  0  0
   -5.2861   -6.0638  -22.2157 C   0  0  0  0  0  0  0  0  0  0  0  0
   -8.8026   -0.5582  -21.9405 C   0  0  0  0  0  0  0  0  0  0  0  0
   -7.5941    0.2422  -22.3263 C   0  0  0  0  0  0  0  0  0  0  0  0
   -6.4318   -0.4296  -22.9954 C   0  0  0  0  0  0  0  0  0  0  0  0
   -5.2233    0.3708  -23.3811 C   0  0  0  0  0  0  0  0  0  0  0  0
   -5.1771    1.8432  -23.0978 C   0  0  0  0  0  0  0  0  0  0  0  0
   -6.3394    2.5150  -22.4286 C   0  0  0  0  0  0  0  0  0  0  0  0
   -6.2932    3.9872  -22.1453 Cl  0  0  0  0  0  0  0  0  0  0  0  0
   -7.5479    1.7144  -22.0429 C   0  0  0  0  0  0  0  0  0  0  0  0
  -11.0354    1.3195  -22.6390 C   0  0  0  0  0  0  0  0  0  0  0  0
  -11.8205    2.4321  -23.2683 C   0  0  0  0  0  0  0  0  0  0  0  0
  -13.3178    2.4370  -23.1795 C   0  0  0  0  0  0  0  0  0  0  0  0
  -14.1028    3.5496  -23.8087 N   0  0  0  0  0  0  0  0  0  0  0  0
  -13.3904    4.6572  -24.5269 C   0  0  0  0  0  0  0  0  0  0  0  0
  -11.8931    4.6523  -24.6157 C   0  0  0  0  0  0  0  0  0  0  0  0
  -11.1807    5.7599  -25.3339 C   0  0  0  0  0  0  0  0  0  0  0  0
  -11.9657    6.8724  -25.9631 F   0  0  0  0  0  0  0  0  0  0  0  0
   -9.6834    5.7550  -25.4227 C   0  0  0  0  0  0  0  0  0  0  0  0
   -8.8984    4.6424  -24.7934 C   0  0  0  0  0  0  0  0  0  0  0  0
   -9.6107    3.5348  -24.0753 C   0  0  0  0  0  0  0  0  0  0  0  0
  -11.1081    3.5397  -23.9865 C   0  0  0  0  0  0  0  0  0  0  0  0
 16 17  1  0  0  0
 17  4  1  0  0  0
  4  5  2  0  0  0
  4  6  1  0  0  0
  6  7  1  0  0  0
  7  8  1  0  0  0
  8  9  1  0  0  0
  9 10  1  0  0  0
 10 11  2  0  0  0
 11 12  1  0  0  0
 12 13  2  0  0  0
 13  1  1  0  0  0
  1 18  1  0  0  0
 18 19  1  0  0  0
 19 20  2  0  0  0
 20 21  1  0  0  0
 21 22  2  0  0  0
 22 23  1  0  0  0
 23 24  1  0  0  0
 23 25  2  0  0  0
  1  2  1  0  0  0
  2  3  2  0  0  0
  2 26  1  0  0  0
 26 27  1  0  0  0
 27 28  2  0  0  0
 28 29  1  0  0  0
 29 30  2  0  0  0
 30 31  1  0  0  0
 31 32  2  0  0  0
 32 33  1  0  0  0
 32 34  1  0  0  0
 34 35  2  0  0  0
 35 36  1  0  0  0
 36 37  2  0  0  0
 13 14  1  0  0  0
 14 15  2  0  0  0
 15  6  1  0  0  0
 15 10  1  0  0  0
 25 19  1  0  0  0
 37 27  1  0  0  0
 37 31  1  0  0  0
M  END
> <minimizedAffinity>
-7.86565

> <CNNscore>
0.1944545358

> <CNNaffinity>
6.2883081436

> <CNN_VS>
1.2227900028

> <CNNaffinity_variance>
0.4962219298

$$$$



 37 41  0  0  0  0  0  0  0  0999 V2000
   -7.2684   -2.9726  -23.7161 N   0  0  0  0  0  0  0  0  0  0  0  0
   -6.8600   -2.7580  -22.2888 C   0  0  0  0  0  0  0  0  0  0  0  0
   -5.9480   -3.7393  -21.6140 O   0  0  0  0  0  0  0  0  0  0  0  0
   -3.0920   -3.8230  -27.0455 C   0  0  0  0  0  0  0  0  0  0  0  0
   -3.5955   -2.6271  -26.2931 O   0  0  0  0  0  0  0  0  0  0  0  0
   -3.8129   -5.1341  -26.9390 N   0  0  0  0  0  0  0  0  0  0  0  0
   -3.3094   -6.3301  -27.6915 C   0  0  0  0  0  0  0  0  0  0  0  0
   -4.0302   -7.6412  -27.5850 C   0  0  0  0  0  0  0  0  0  0  0  0
   -5.2545   -7.7564  -26.7260 C   0  0  0  0  0  0  0  0  0  0  0  0
   -5.7580   -6.5605  -25.9736 C   0  0  0  0  0  0  0  0  0  0  0  0
   -6.9823   -6.6756  -25.1145 C   0  0  0  0  0  0  0  0  0  0  0  0
   -7.4857   -5.4797  -24.3621 C   0  0  0  0  0  0  0  0  0  0  0  0
   -6.7649   -4.1686  -24.4686 C   0  0  0  0  0  0  0  0  0  0  0  0
   -5.5406   -4.0534  -25.3275 C   0  0  0  0  0  0  0  0  0  0  0  0
   -5.0371   -5.2493  -26.0801 C   0  0  0  0  0  0  0  0  0  0  0  0
   -1.1517   -2.3946  -28.0174 C   0  0  0  0  0  0  0  0  0  0  0  0
   -1.8678   -3.7078  -27.9045 C   0  0  0  0  0  0  0  0  0  0  0  0
   -8.1804   -1.9913  -24.3909 C   0  0  0  0  0  0  0  0  0  0  0  0
   -9.5938   -1.8311  -23.9149 C   0  0  0  0  0  0  0  0  0  0  0  0
  -10.3841   -3.0343  -23.4933 C   0  0  0  0  0  0  0  0  0  0  0  0
  -11.7975   -2.8741  -23.0173 C   0  0  0  0  0  0  0  0  0  0  0  0
  -12.4207   -1.5107  -22.9631 C   0  0  0  0  0  0  0  0  0  0  0  0
  -11.6304   -0.3075  -23.3848 C   0  0  0  0  0  0  0  0  0  0  0  0
  -12.2535    1.0558  -23.3305 Cl  0  0  0  0  0  0  0  0  0  0  0  0
  -10.2169   -0.4678  -23.8607 C   0  0  0  0  0  0  0  0  0  0  0  0
   -7.3635   -1.5621  -21.5364 C   0  0  0  0  0  0  0  0  0  0  0  0
   -6.4939   -0.9028  -20.5072 C   0  0  0  0  0  0  0  0  0  0  0  0
   -6.8727   -0.9605  -19.0570 C   0  0  0  0  0  0  0  0  0  0  0  0
   -6.0032   -0.3012  -18.0279 N   0  0  0  0  0  0  0  0  0  0  0  0
   -4.7547    0.4158  -18.4489 C   0  0  0  0  0  0  0  0  0  0  0  0
   -4.3758    0.4735  -19.8991 C   0  0  0  0  0  0  0  0  0  0  0  0
   -3.1274    1.1904  -20.3202 C   0  0  0  0  0  0  0  0  0  0  0  0
   -2.2578    1.8497  -19.2910 F   0  0  0  0  0  0  0  0  0  0  0  0
   -2.7485    1.2482  -21.7703 C   0  0  0  0  0  0  0  0  0  0  0  0
   -3.6181    0.5889  -22.7996 C   0  0  0  0  0  0  0  0  0  0  0  0
   -4.8665   -0.1281  -22.3785 C   0  0  0  0  0  0  0  0  0  0  0  0
   -5.2454   -0.1858  -20.9282 C   0  0  0  0  0  0  0  0  0  0  0  0
 16 17  1  0  0  0
 17  4  1  0  0  0
  4  5  2  0  0  0
  4  6  1  0  0  0
  6  7  1  0  0  0
  7  8  1  0  0  0
  8  9  1  0  0  0
  9 10  1  0  0  0
 10 11  2  0  0  0
 11 12  1  0  0  0
 12 13  2  0  0  0
 13  1  1  0  0  0
  1 18  1  0  0  0
 18 19  1  0  0  0
 19 20  2  0  0  0
 20 21  1  0  0  0
 21 22  2  0  0  0
 22 23  1  0  0  0
 23 24  1  0  0  0
 23 25  2  0  0  0
  1  2  1  0  0  0
  2  3  2  0  0  0
  2 26  1  0  0  0
 26 27  1  0  0  0
 27 28  2  0  0  0
 28 29  1  0  0  0
 29 30  2  0  0  0
 30 31  1  0  0  0
 31 32  2  0  0  0
 32 33  1  0  0  0
 32 34  1  0  0  0
 34 35  2  0  0  0
 35 36  1  0  0  0
 36 37  2  0  0  0
 13 14  1  0  0  0
 14 15  2  0  0  0
 15  6  1  0  0  0
 15 10  1  0  0  0
 25 19  1  0  0  0
 37 27  1  0  0  0
 37 31  1  0  0  0
M  END
> <minimizedAffinity>
-8.04187

> <CNNscore>
0.1808184236

> <CNNaffinity>
6.2671308517

> <CNN_VS>
1.1332126856

> <CNNaffinity_variance>
0.2439620048

$$$$



 37 41  0  0  0  0  0  0  0  0999 V2000
   -6.5871    0.1007  -24.2856 N   0  0  0  0  0  0  0  0  0  0  0  0
   -7.8827    0.6203  -24.8346 C   0  0  0  0  0  0  0  0  0  0  0  0
   -8.4648    0.0190  -26.0794 O   0  0  0  0  0  0  0  0  0  0  0  0
   -6.9213   -5.2912  -24.0266 C   0  0  0  0  0  0  0  0  0  0  0  0
   -7.6349   -4.1703  -23.3307 O   0  0  0  0  0  0  0  0  0  0  0  0
   -5.8584   -4.9885  -25.0409 N   0  0  0  0  0  0  0  0  0  0  0  0
   -5.1448   -6.1094  -25.7368 C   0  0  0  0  0  0  0  0  0  0  0  0
   -4.0820   -5.8067  -26.7510 C   0  0  0  0  0  0  0  0  0  0  0  0
   -3.7327   -4.3831  -27.0693 C   0  0  0  0  0  0  0  0  0  0  0  0
   -4.4463   -3.2622  -26.3734 C   0  0  0  0  0  0  0  0  0  0  0  0
   -4.0970   -1.8385  -26.6917 C   0  0  0  0  0  0  0  0  0  0  0  0
   -4.8106   -0.7176  -25.9958 C   0  0  0  0  0  0  0  0  0  0  0  0
   -5.8735   -1.0203  -24.9816 C   0  0  0  0  0  0  0  0  0  0  0  0
   -6.2228   -2.4439  -24.6632 C   0  0  0  0  0  0  0  0  0  0  0  0
   -5.5092   -3.5649  -25.3592 C   0  0  0  0  0  0  0  0  0  0  0  0
   -6.5761   -7.4239  -22.5837 C   0  0  0  0  0  0  0  0  0  0  0  0
   -7.2706   -6.7147  -23.7083 C   0  0  0  0  0  0  0  0  0  0  0  0
   -6.0051    0.7019  -23.0408 C   0  0  0  0  0  0  0  0  0  0  0  0
   -6.3015    0.0909  -21.7034 C   0  0  0  0  0  0  0  0  0  0  0  0
   -7.4442   -0.8692  -21.5541 C   0  0  0  0  0  0  0  0  0  0  0  0
   -7.7406   -1.4802  -20.2166 C   0  0  0  0  0  0  0  0  0  0  0  0
   -6.8942   -1.1311  -19.0284 C   0  0  0  0  0  0  0  0  0  0  0  0
   -5.7515   -0.1709  -19.1777 C   0  0  0  0  0  0  0  0  0  0  0  0
   -4.9052    0.1782  -17.9895 Cl  0  0  0  0  0  0  0  0  0  0  0  0
   -5.4551    0.4401  -20.5152 C   0  0  0  0  0  0  0  0  0  0  0  0
   -8.5963    1.7412  -24.1387 C   0  0  0  0  0  0  0  0  0  0  0  0
  -10.0889    1.7050  -23.9941 C   0  0  0  0  0  0  0  0  0  0  0  0
  -10.8951    2.9488  -24.2241 C   0  0  0  0  0  0  0  0  0  0  0  0
  -12.3876    2.9125  -24.0795 N   0  0  0  0  0  0  0  0  0  0  0  0
  -13.0740    1.6324  -23.7049 C   0  0  0  0  0  0  0  0  0  0  0  0
  -12.2678    0.3886  -23.4749 C   0  0  0  0  0  0  0  0  0  0  0  0
  -12.9541   -0.8915  -23.1004 C   0  0  0  0  0  0  0  0  0  0  0  0
  -14.4467   -0.9278  -22.9558 F   0  0  0  0  0  0  0  0  0  0  0  0
  -12.1479   -2.1353  -22.8704 C   0  0  0  0  0  0  0  0  0  0  0  0
  -10.6553   -2.0991  -23.0150 C   0  0  0  0  0  0  0  0  0  0  0  0
   -9.9689   -0.8190  -23.3895 C   0  0  0  0  0  0  0  0  0  0  0  0
  -10.7752    0.4249  -23.6195 C   0  0  0  0  0  0  0  0  0  0  0  0
 16 17  1  0  0  0
 17  4  1  0  0  0
  4  5  2  0  0  0
  4  6  1  0  0  0
  6  7  1  0  0  0
  7  8  1  0  0  0
  8  9  1  0  0  0
  9 10  1  0  0  0
 10 11  2  0  0  0
 11 12  1  0  0  0
 12 13  2  0  0  0
 13  1  1  0  0  0
  1 18  1  0  0  0
 18 19  1  0  0  0
 19 20  2  0  0  0
 20 21  1  0  0  0
 21 22  2  0  0  0
 22 23  1  0  0  0
 23 24  1  0  0  0
 23 25  2  0  0  0
  1  2  1  0  0  0
  2  3  2  0  0  0
  2 26  1  0  0  0
 26 27  1  0  0  0
 27 28  2  0  0  0
 28 29  1  0  0  0
 29 30  2  0  0  0
 30 31  1  0  0  0
 31 32  2  0  0  0
 32 33  1  0  0  0
 32 34  1  0  0  0
 34 35  2  0  0  0
 35 36  1  0  0  0
 36 37  2  0  0  0
 13 14  1  0  0  0
 14 15  2  0  0  0
 15  6  1  0  0  0
 15 10  1  0  0  0
 25 19  1  0  0  0
 37 27  1  0  0  0
 37 31  1  0  0  0
M  END
> <minimizedAffinity>
-7.94760

> <CNNscore>
0.1760945320

> <CNNaffinity>
6.2976961136

> <CNN_VS>
1.1089898348

> <CNNaffinity_variance>
0.6936733723

$$$$



 37 41  0  0  0  0  0  0  0  0999 V2000
   -9.1439   -2.8747  -23.1145 N   0  0  0  0  0  0  0  0  0  0  0  0
   -7.9892   -2.3025  -22.3470 C   0  0  0  0  0  0  0  0  0  0  0  0
   -6.5849   -2.5365  -22.8194 O   0  0  0  0  0  0  0  0  0  0  0  0
   -5.3138   -6.3965  -24.5902 C   0  0  0  0  0  0  0  0  0  0  0  0
   -5.5633   -5.5903  -23.3502 O   0  0  0  0  0  0  0  0  0  0  0  0
   -6.2577   -6.2975  -25.7518 N   0  0  0  0  0  0  0  0  0  0  0  0
   -6.0082   -7.1037  -26.9918 C   0  0  0  0  0  0  0  0  0  0  0  0
   -6.9522   -7.0048  -28.1533 C   0  0  0  0  0  0  0  0  0  0  0  0
   -8.1457   -6.0996  -28.0748 C   0  0  0  0  0  0  0  0  0  0  0  0
   -8.3952   -5.2934  -26.8348 C   0  0  0  0  0  0  0  0  0  0  0  0
   -9.5888   -4.3882  -26.7562 C   0  0  0  0  0  0  0  0  0  0  0  0
   -9.8383   -3.5820  -25.5161 C   0  0  0  0  0  0  0  0  0  0  0  0
   -8.8943   -3.6810  -24.3546 C   0  0  0  0  0  0  0  0  0  0  0  0
   -7.7008   -4.5861  -24.4331 C   0  0  0  0  0  0  0  0  0  0  0  0
   -7.4512   -5.3924  -25.6732 C   0  0  0  0  0  0  0  0  0  0  0  0
   -3.0671   -7.2484  -23.6020 C   0  0  0  0  0  0  0  0  0  0  0  0
   -4.1203   -7.3016  -24.6688 C   0  0  0  0  0  0  0  0  0  0  0  0
  -10.5482   -2.6407  -22.6421 C   0  0  0  0  0  0  0  0  0  0  0  0
  -11.2774   -1.3937  -23.0460 C   0  0  0  0  0  0  0  0  0  0  0  0
  -12.7771   -1.3644  -23.0334 C   0  0  0  0  0  0  0  0  0  0  0  0
  -13.5063   -0.1174  -23.4373 C   0  0  0  0  0  0  0  0  0  0  0  0
  -12.7358    1.1004  -23.8538 C   0  0  0  0  0  0  0  0  0  0  0  0
  -11.2361    1.0711  -23.8663 C   0  0  0  0  0  0  0  0  0  0  0  0
  -10.4657    2.2888  -24.2828 Cl  0  0  0  0  0  0  0  0  0  0  0  0
  -10.5070   -0.1760  -23.4624 C   0  0  0  0  0  0  0  0  0  0  0  0
   -8.2389   -1.4963  -21.1070 C   0  0  0  0  0  0  0  0  0  0  0  0
   -7.0827   -0.9728  -20.3073 C   0  0  0  0  0  0  0  0  0  0  0  0
   -6.7182   -1.6195  -19.0040 C   0  0  0  0  0  0  0  0  0  0  0  0
   -5.5621   -1.0960  -18.2044 N   0  0  0  0  0  0  0  0  0  0  0  0
   -4.7705    0.0743  -18.7083 C   0  0  0  0  0  0  0  0  0  0  0  0
   -5.1351    0.7211  -20.0116 C   0  0  0  0  0  0  0  0  0  0  0  0
   -4.3435    1.8914  -20.5154 C   0  0  0  0  0  0  0  0  0  0  0  0
   -3.1874    2.4150  -19.7159 F   0  0  0  0  0  0  0  0  0  0  0  0
   -4.7081    2.5382  -21.8188 C   0  0  0  0  0  0  0  0  0  0  0  0
   -5.8642    2.0146  -22.6184 C   0  0  0  0  0  0  0  0  0  0  0  0
   -6.6558    0.8443  -22.1146 C   0  0  0  0  0  0  0  0  0  0  0  0
   -6.2912    0.1975  -20.8111 C   0  0  0  0  0  0  0  0  0  0  0  0
 16 17  1  0  0  0
 17  4  1  0  0  0
  4  5  2  0  0  0
  4  6  1  0  0  0
  6  7  1  0  0  0
  7  8  1  0  0  0
  8  9  1  0  0  0
  9 10  1  0  0  0
 10 11  2  0  0  0
 11 12  1  0  0  0
 12 13  2  0  0  0
 13  1  1  0  0  0
  1 18  1  0  0  0
 18 19  1  0  0  0
 19 20  2  0  0  0
 20 21  1  0  0  0
 21 22  2  0  0  0
 22 23  1  0  0  0
 23 24  1  0  0  0
 23 25  2  0  0  0
  1  2  1  0  0  0
  2  3  2  0  0  0
  2 26  1  0  0  0
 26 27  1  0  0  0
 27 28  2  0  0  0
 28 29  1  0  0  0
 29 30  2  0  0  0
 30 31  1  0  0  0
 31 32  2  0  0  0
 32 33  1  0  0  0
 32 34  1  0  0  0
 34 35  2  0  0  0
 35 36  1  0  0  0
 36 37  2  0  0  0
 13 14  1  0  0  0
 14 15  2  0  0  0
 15  6  1  0  0  0
 15 10  1  0  0  0
 25 19  1  0  0  0
 37 27  1  0  0  0
 37 31  1  0  0  0
M  END
> <minimizedAffinity>
-8.92093

> <CNNscore>
0.1677340269

> <CNNaffinity>
6.4118375778

> <CNN_VS>
1.0754833221

> <CNNaffinity_variance>
0.4943702817

$$$$



 37 41  0  0  0  0  0  0  0  0999 V2000
   -8.1772    0.2641  -23.7531 N   0  0  0  0  0  0  0  0  0  0  0  0
   -9.6751    0.2454  -23.6761 C   0  0  0  0  0  0  0  0  0  0  0  0
  -10.4589   -0.6964  -24.5413 O   0  0  0  0  0  0  0  0  0  0  0  0
   -9.3108   -4.6081  -25.8090 C   0  0  0  0  0  0  0  0  0  0  0  0
  -10.0249   -3.6851  -24.8667 O   0  0  0  0  0  0  0  0  0  0  0  0
   -7.9807   -4.2148  -26.3802 N   0  0  0  0  0  0  0  0  0  0  0  0
   -7.2666   -5.1378  -27.3225 C   0  0  0  0  0  0  0  0  0  0  0  0
   -5.9365   -4.7444  -27.8936 C   0  0  0  0  0  0  0  0  0  0  0  0
   -5.3206   -3.4281  -27.5225 C   0  0  0  0  0  0  0  0  0  0  0  0
   -6.0347   -2.5051  -26.5801 C   0  0  0  0  0  0  0  0  0  0  0  0
   -5.4188   -1.1886  -26.2089 C   0  0  0  0  0  0  0  0  0  0  0  0
   -6.1330   -0.2656  -25.2666 C   0  0  0  0  0  0  0  0  0  0  0  0
   -7.4631   -0.6590  -24.6955 C   0  0  0  0  0  0  0  0  0  0  0  0
   -8.0790   -1.9753  -25.0666 C   0  0  0  0  0  0  0  0  0  0  0  0
   -7.3648   -2.8984  -26.0090 C   0  0  0  0  0  0  0  0  0  0  0  0
   -9.3040   -7.2041  -25.7061 C   0  0  0  0  0  0  0  0  0  0  0  0
   -9.9267   -5.9245  -26.1802 C   0  0  0  0  0  0  0  0  0  0  0  0
   -7.3934    1.2059  -22.8878 C   0  0  0  0  0  0  0  0  0  0  0  0
   -6.7191    0.6995  -21.6474 C   0  0  0  0  0  0  0  0  0  0  0  0
   -7.3665   -0.3773  -20.8281 C   0  0  0  0  0  0  0  0  0  0  0  0
   -6.6921   -0.8836  -19.5876 C   0  0  0  0  0  0  0  0  0  0  0  0
   -5.3703   -0.3132  -19.1664 C   0  0  0  0  0  0  0  0  0  0  0  0
   -4.7228    0.7636  -19.9857 C   0  0  0  0  0  0  0  0  0  0  0  0
   -3.4010    1.3341  -19.5646 Cl  0  0  0  0  0  0  0  0  0  0  0  0
   -5.3973    1.2700  -21.2262 C   0  0  0  0  0  0  0  0  0  0  0  0
  -10.3892    1.1684  -22.7337 C   0  0  0  0  0  0  0  0  0  0  0  0
  -11.4497    2.0947  -23.2509 C   0  0  0  0  0  0  0  0  0  0  0  0
  -12.8973    1.7235  -23.1226 C   0  0  0  0  0  0  0  0  0  0  0  0
  -13.9577    2.6498  -23.6397 N   0  0  0  0  0  0  0  0  0  0  0  0
  -13.5705    3.9473  -24.2851 C   0  0  0  0  0  0  0  0  0  0  0  0
  -12.1229    4.3185  -24.4133 C   0  0  0  0  0  0  0  0  0  0  0  0
  -11.7357    5.6161  -25.0587 C   0  0  0  0  0  0  0  0  0  0  0  0
  -12.7961    6.5424  -25.5758 F   0  0  0  0  0  0  0  0  0  0  0  0
  -10.2881    5.9873  -25.1870 C   0  0  0  0  0  0  0  0  0  0  0  0
   -9.2276    5.0610  -24.6699 C   0  0  0  0  0  0  0  0  0  0  0  0
   -9.6148    3.7635  -24.0245 C   0  0  0  0  0  0  0  0  0  0  0  0
  -11.0625    3.3923  -23.8962 C   0  0  0  0  0  0  0  0  0  0  0  0
 16 17  1  0  0  0
 17  4  1  0  0  0
  4  5  2  0  0  0
  4  6  1  0  0  0
  6  7  1  0  0  0
  7  8  1  0  0  0
  8  9  1  0  0  0
  9 10  1  0  0  0
 10 11  2  0  0  0
 11 12  1  0  0  0
 12 13  2  0  0  0
 13  1  1  0  0  0
  1 18  1  0  0  0
 18 19  1  0  0  0
 19 20  2  0  0  0
 20 21  1  0  0  0
 21 22  2  0  0  0
 22 23  1  0  0  0
 23 24  1  0  0  0
 23 25  2  0  0  0
  1  2  1  0  0  0
  2  3  2  0  0  0
  2 26  1  0  0  0
 26 27  1  0  0  0
 27 28  2  0  0  0
 28 29  1  0  0  0
 29 30  2  0  0  0
 30 31  1  0  0  0
 31 32  2  0  0  0
 32 33  1  0  0  0
 32 34  1  0  0  0
 34 35  2  0  0  0
 35 36  1  0  0  0
 36 37  2  0  0  0
 13 14  1  0  0  0
 14 15  2  0  0  0
 15  6  1  0  0  0
 15 10  1  0  0  0
 25 19  1  0  0  0
 37 27  1  0  0  0
 37 31  1  0  0  0
M  END
> <minimizedAffinity>
-7.84909

> <CNNscore>
0.1646687835

> <CNNaffinity>
6.1682152748

> <CNN_VS>
1.0157124996

> <CNNaffinity_variance>
0.4365170002

$$$$
