


 38 43  0  0  0  0  0  0  0  0999 V2000
    7.5212   -3.5179   23.4957 C   0  0  0  0  0  0  0  0  0  0  0  0
    7.7252   -2.2328   22.7493 C   0  0  0  0  0  0  0  0  0  0  0  0
    6.6198   -1.9704   21.7698 C   0  0  0  0  0  0  0  0  0  0  0  0
    6.9122   -0.6720   21.0779 N   0  0  0  0  0  0  0  0  0  0  0  0
    8.1983   -0.1320   21.6297 C   0  0  0  0  0  0  0  0  0  0  0  0
    8.8648    1.1479   21.2204 O   0  0  0  0  0  0  0  0  0  0  0  0
    8.7007   -1.0967   22.6627 C   0  0  0  0  0  0  0  0  0  0  0  0
    9.5825    0.1007   22.4660 C   0  0  0  0  0  0  0  0  0  0  0  0
   10.8398    0.2466   23.2711 N   0  0  0  0  0  0  0  0  0  0  0  0
   11.2152   -0.8048   24.2728 C   0  0  0  0  0  0  0  0  0  0  0  0
   12.4724   -0.6589   25.0778 O   0  0  0  0  0  0  0  0  0  0  0  0
   10.3333   -2.0023   24.4695 C   0  0  0  0  0  0  0  0  0  0  0  0
   10.7087   -3.0537   25.4713 C   0  0  0  0  0  0  0  0  0  0  0  0
    9.8269   -4.2510   25.6680 C   0  0  0  0  0  0  0  0  0  0  0  0
    8.5697   -4.3969   24.8629 C   0  0  0  0  0  0  0  0  0  0  0  0
    7.6878   -5.5943   25.0597 F   0  0  0  0  0  0  0  0  0  0  0  0
    8.1943   -3.3455   23.8612 C   0  0  0  0  0  0  0  0  0  0  0  0
    9.0761   -2.1482   23.6645 C   0  0  0  0  0  0  0  0  0  0  0  0
    6.0670   -0.0269   20.0199 C   0  0  0  0  0  0  0  0  0  0  0  0
    6.1983   -0.4574   18.5891 C   0  0  0  0  0  0  0  0  0  0  0  0
    5.3531    0.1877   17.5311 N   0  0  0  0  0  0  0  0  0  0  0  0
    4.3765    1.2634   17.9040 C   0  0  0  0  0  0  0  0  0  0  0  0
    4.2452    1.6940   19.3349 C   0  0  0  0  0  0  0  0  0  0  0  0
    3.2685    2.7699   19.7077 C   0  0  0  0  0  0  0  0  0  0  0  0
    3.1373    3.2004   21.1386 C   0  0  0  0  0  0  0  0  0  0  0  0
    3.9825    2.5552   22.1965 C   0  0  0  0  0  0  0  0  0  0  0  0
    4.9591    1.4795   21.8236 C   0  0  0  0  0  0  0  0  0  0  0  0
    5.0904    1.0489   20.3929 C   0  0  0  0  0  0  0  0  0  0  0  0
   11.7216    1.4440   23.0743 C   0  0  0  0  0  0  0  0  0  0  0  0
   11.1215    2.7606   22.6788 C   0  0  0  0  0  0  0  0  0  0  0  0
   10.2617    2.8550   21.4533 O   0  0  0  0  0  0  0  0  0  0  0  0
   11.3811    3.9827   23.5088 N   0  0  0  0  0  0  0  0  0  0  0  0
   11.9453    3.9207   24.3132 H   0  0  0  0  0  0  0  0  0  0  0  0
   10.7809    5.2993   23.1133 C   0  0  0  0  0  0  0  0  0  0  0  0
   11.6101    6.3115   22.3799 C   0  0  0  0  0  0  0  0  0  0  0  0
   12.6187    5.4059   21.7377 F   0  0  0  0  0  0  0  0  0  0  0  0
   12.0890    7.6382   21.8696 C   0  0  0  0  0  0  0  0  0  0  0  0
   10.8895    7.5687   22.7675 C   0  0  0  0  0  0  0  0  0  0  0  0
  2  1  1  0  0  0
  2  3  1  0  0  0
  3  4  1  0  0  0
  4 19  1  0  0  0
 19 20  2  0  0  0
 20 21  1  0  0  0
 21 22  2  0  0  0
 22 23  1  0  0  0
 23 24  2  0  0  0
 24 25  1  0  0  0
 25 26  2  0  0  0
 26 27  1  0  0  0
 27 28  2  0  0  0
  4  5  1  0  0  0
  5  6  2  0  0  0
  5  7  1  0  0  0
  7  8  1  0  0  0
  8  9  1  0  0  0
  9 29  1  0  0  0
 29 30  1  0  0  0
 30 31  2  0  0  0
 30 32  1  0  0  0
 32 34  1  0  0  0
 34 35  1  0  0  0
 35 36  1  0  0  0
 35 37  1  0  0  0
 37 38  1  0  0  0
  9 10  1  0  0  0
 10 11  2  0  0  0
 10 12  1  0  0  0
 12 13  2  0  0  0
 13 14  1  0  0  0
 14 15  2  0  0  0
 15 16  1  0  0  0
 15 17  1  0  0  0
 17 18  2  0  0  0
  7  2  1  0  0  0
 38 35  1  0  0  0
 18 12  1  0  0  0
 28 19  1  0  0  0
 18  7  1  0  0  0
 28 23  1  0  0  0
 32 33  1  0  0  0
M  END
> <minimizedAffinity>
-9.76972

> <CNNscore>
0.7079925537

> <CNNaffinity>
7.0924925804

> <CNN_VS>
5.0214319229

> <CNNaffinity_variance>
0.0973604769

$$$$



 38 43  0  0  0  0  0  0  0  0999 V2000
   10.8837   -3.1906   26.1156 C   0  0  0  0  0  0  0  0  0  0  0  0
    9.5082   -2.6732   25.8148 C   0  0  0  0  0  0  0  0  0  0  0  0
    8.4399   -3.5219   26.4380 C   0  0  0  0  0  0  0  0  0  0  0  0
    7.1094   -2.9274   26.0826 N   0  0  0  0  0  0  0  0  0  0  0  0
    7.3555   -1.7112   25.2397 C   0  0  0  0  0  0  0  0  0  0  0  0
    6.3036   -0.8103   24.6635 O   0  0  0  0  0  0  0  0  0  0  0  0
    8.8380   -1.5541   25.0742 C   0  0  0  0  0  0  0  0  0  0  0  0
    8.0313   -0.4964   24.3811 C   0  0  0  0  0  0  0  0  0  0  0  0
    8.7223    0.5891   23.6103 N   0  0  0  0  0  0  0  0  0  0  0  0
   10.2200    0.6171   23.5327 C   0  0  0  0  0  0  0  0  0  0  0  0
   10.9110    1.7027   22.7620 O   0  0  0  0  0  0  0  0  0  0  0  0
   11.0268   -0.4406   24.2259 C   0  0  0  0  0  0  0  0  0  0  0  0
   12.5245   -0.4127   24.1484 C   0  0  0  0  0  0  0  0  0  0  0  0
   13.3312   -1.4703   24.8415 C   0  0  0  0  0  0  0  0  0  0  0  0
   12.6402   -2.5559   25.6123 C   0  0  0  0  0  0  0  0  0  0  0  0
   13.4470   -3.6136   26.3055 F   0  0  0  0  0  0  0  0  0  0  0  0
   11.1425   -2.5838   25.6898 C   0  0  0  0  0  0  0  0  0  0  0  0
   10.3358   -1.5262   24.9967 C   0  0  0  0  0  0  0  0  0  0  0  0
    5.7684   -3.4562   26.4972 C   0  0  0  0  0  0  0  0  0  0  0  0
    4.9301   -4.2246   25.5191 C   0  0  0  0  0  0  0  0  0  0  0  0
    3.5890   -4.7533   25.9338 N   0  0  0  0  0  0  0  0  0  0  0  0
    3.0863   -4.5137   27.3265 C   0  0  0  0  0  0  0  0  0  0  0  0
    3.9246   -3.7452   28.3046 C   0  0  0  0  0  0  0  0  0  0  0  0
    3.4218   -3.5055   29.6975 C   0  0  0  0  0  0  0  0  0  0  0  0
    4.2602   -2.7371   30.6755 C   0  0  0  0  0  0  0  0  0  0  0  0
    5.6012   -2.2083   30.2608 C   0  0  0  0  0  0  0  0  0  0  0  0
    6.1040   -2.4480   28.8681 C   0  0  0  0  0  0  0  0  0  0  0  0
    5.2657   -3.2164   27.8900 C   0  0  0  0  0  0  0  0  0  0  0  0
    7.9155    1.6468   22.9171 C   0  0  0  0  0  0  0  0  0  0  0  0
    7.9288    3.0565   23.4295 C   0  0  0  0  0  0  0  0  0  0  0  0
    6.8326    3.5361   24.3342 O   0  0  0  0  0  0  0  0  0  0  0  0
    9.0383    3.9866   23.0373 N   0  0  0  0  0  0  0  0  0  0  0  0
    9.7578    3.6718   22.4435 H   0  0  0  0  0  0  0  0  0  0  0  0
    9.0517    5.3963   23.5497 C   0  0  0  0  0  0  0  0  0  0  0  0
    9.9937    6.4013   22.9559 C   0  0  0  0  0  0  0  0  0  0  0  0
    9.1457    7.6355   23.0414 F   0  0  0  0  0  0  0  0  0  0  0  0
   11.2303    6.9775   22.3325 C   0  0  0  0  0  0  0  0  0  0  0  0
   11.1690    5.5159   22.6642 C   0  0  0  0  0  0  0  0  0  0  0  0
  2  1  1  0  0  0
  2  3  1  0  0  0
  3  4  1  0  0  0
  4 19  1  0  0  0
 19 20  2  0  0  0
 20 21  1  0  0  0
 21 22  2  0  0  0
 22 23  1  0  0  0
 23 24  2  0  0  0
 24 25  1  0  0  0
 25 26  2  0  0  0
 26 27  1  0  0  0
 27 28  2  0  0  0
  4  5  1  0  0  0
  5  6  2  0  0  0
  5  7  1  0  0  0
  7  8  1  0  0  0
  8  9  1  0  0  0
  9 29  1  0  0  0
 29 30  1  0  0  0
 30 31  2  0  0  0
 30 32  1  0  0  0
 32 34  1  0  0  0
 34 35  1  0  0  0
 35 36  1  0  0  0
 35 37  1  0  0  0
 37 38  1  0  0  0
  9 10  1  0  0  0
 10 11  2  0  0  0
 10 12  1  0  0  0
 12 13  2  0  0  0
 13 14  1  0  0  0
 14 15  2  0  0  0
 15 16  1  0  0  0
 15 17  1  0  0  0
 17 18  2  0  0  0
  7  2  1  0  0  0
 38 35  1  0  0  0
 18 12  1  0  0  0
 28 19  1  0  0  0
 18  7  1  0  0  0
 28 23  1  0  0  0
 32 33  1  0  0  0
M  END
> <minimizedAffinity>
-8.11248

> <CNNscore>
0.6445606947

> <CNNaffinity>
6.9613847733

> <CNN_VS>
4.4870347977

> <CNNaffinity_variance>
0.1610515118

$$$$



 38 43  0  0  0  0  0  0  0  0999 V2000
    7.5209   -3.3942   23.4485 C   0  0  0  0  0  0  0  0  0  0  0  0
    7.7093   -2.0986   22.7162 C   0  0  0  0  0  0  0  0  0  0  0  0
    6.6079   -1.8452   21.7300 C   0  0  0  0  0  0  0  0  0  0  0  0
    6.8840   -0.5355   21.0531 N   0  0  0  0  0  0  0  0  0  0  0  0
    8.1562    0.0206   21.6209 C   0  0  0  0  0  0  0  0  0  0  0  0
    8.8044    1.3155   21.2296 O   0  0  0  0  0  0  0  0  0  0  0  0
    8.6662   -0.9455   22.6488 C   0  0  0  0  0  0  0  0  0  0  0  0
    9.5293    0.2684   22.4711 C   0  0  0  0  0  0  0  0  0  0  0  0
   10.7772    0.4275   23.2881 N   0  0  0  0  0  0  0  0  0  0  0  0
   11.1620   -0.6272   24.2828 C   0  0  0  0  0  0  0  0  0  0  0  0
   12.4099   -0.4681   25.0998 O   0  0  0  0  0  0  0  0  0  0  0  0
   10.2989   -1.8411   24.4605 C   0  0  0  0  0  0  0  0  0  0  0  0
   10.6837   -2.8958   25.4552 C   0  0  0  0  0  0  0  0  0  0  0  0
    9.8206   -4.1097   25.6329 C   0  0  0  0  0  0  0  0  0  0  0  0
    8.5727   -4.2688   24.8160 C   0  0  0  0  0  0  0  0  0  0  0  0
    7.7096   -5.4827   24.9937 F   0  0  0  0  0  0  0  0  0  0  0  0
    8.1879   -3.2141   23.8213 C   0  0  0  0  0  0  0  0  0  0  0  0
    9.0510   -2.0003   23.6435 C   0  0  0  0  0  0  0  0  0  0  0  0
    6.0368    0.1057   19.9943 C   0  0  0  0  0  0  0  0  0  0  0  0
    6.4227   -0.0152   18.5499 C   0  0  0  0  0  0  0  0  0  0  0  0
    5.5755    0.6260   17.4910 N   0  0  0  0  0  0  0  0  0  0  0  0
    4.3424    1.3880   17.8767 C   0  0  0  0  0  0  0  0  0  0  0  0
    3.9565    1.5089   19.3212 C   0  0  0  0  0  0  0  0  0  0  0  0
    2.7233    2.2709   19.7068 C   0  0  0  0  0  0  0  0  0  0  0  0
    2.3375    2.3918   21.1513 C   0  0  0  0  0  0  0  0  0  0  0  0
    3.1847    1.7506   22.2100 C   0  0  0  0  0  0  0  0  0  0  0  0
    4.4178    0.9886   21.8244 C   0  0  0  0  0  0  0  0  0  0  0  0
    4.8037    0.8677   20.3800 C   0  0  0  0  0  0  0  0  0  0  0  0
   11.6403    1.6414   23.1103 C   0  0  0  0  0  0  0  0  0  0  0  0
   11.0232    3.0085   23.1209 C   0  0  0  0  0  0  0  0  0  0  0  0
   11.8894    4.2236   22.9681 O   0  0  0  0  0  0  0  0  0  0  0  0
    9.5399    3.1605   23.2842 N   0  0  0  0  0  0  0  0  0  0  0  0
    8.9714    2.3630   23.3845 H   0  0  0  0  0  0  0  0  0  0  0  0
    8.9227    4.5277   23.2948 C   0  0  0  0  0  0  0  0  0  0  0  0
    7.4307    4.6767   23.3342 C   0  0  0  0  0  0  0  0  0  0  0  0
    7.3165    6.1712   23.2758 F   0  0  0  0  0  0  0  0  0  0  0  0
    5.9783    4.3067   23.3938 C   0  0  0  0  0  0  0  0  0  0  0  0
    7.0266    3.2339   23.4062 C   0  0  0  0  0  0  0  0  0  0  0  0
  2  1  1  0  0  0
  2  3  1  0  0  0
  3  4  1  0  0  0
  4 19  1  0  0  0
 19 20  2  0  0  0
 20 21  1  0  0  0
 21 22  2  0  0  0
 22 23  1  0  0  0
 23 24  2  0  0  0
 24 25  1  0  0  0
 25 26  2  0  0  0
 26 27  1  0  0  0
 27 28  2  0  0  0
  4  5  1  0  0  0
  5  6  2  0  0  0
  5  7  1  0  0  0
  7  8  1  0  0  0
  8  9  1  0  0  0
  9 29  1  0  0  0
 29 30  1  0  0  0
 30 31  2  0  0  0
 30 32  1  0  0  0
 32 34  1  0  0  0
 34 35  1  0  0  0
 35 36  1  0  0  0
 35 37  1  0  0  0
 37 38  1  0  0  0
  9 10  1  0  0  0
 10 11  2  0  0  0
 10 12  1  0  0  0
 12 13  2  0  0  0
 13 14  1  0  0  0
 14 15  2  0  0  0
 15 16  1  0  0  0
 15 17  1  0  0  0
 17 18  2  0  0  0
  7  2  1  0  0  0
 38 35  1  0  0  0
 18 12  1  0  0  0
 28 19  1  0  0  0
 18  7  1  0  0  0
 28 23  1  0  0  0
 32 33  1  0  0  0
M  END
> <minimizedAffinity>
-9.11191

> <CNNscore>
0.5522664785

> <CNNaffinity>
7.0393385887

> <CNN_VS>
3.8875906467

> <CNNaffinity_variance>
0.0807639062

$$$$



 38 43  0  0  0  0  0  0  0  0999 V2000
   10.3058   -2.8059   26.2124 C   0  0  0  0  0  0  0  0  0  0  0  0
    9.2301   -1.8465   25.7969 C   0  0  0  0  0  0  0  0  0  0  0  0
    7.8948   -2.2164   26.3714 C   0  0  0  0  0  0  0  0  0  0  0  0
    6.8919   -1.2046   25.9020 N   0  0  0  0  0  0  0  0  0  0  0  0
    7.6074   -0.2093   25.0375 C   0  0  0  0  0  0  0  0  0  0  0  0
    6.9868    0.9748   24.3573 O   0  0  0  0  0  0  0  0  0  0  0  0
    9.0525   -0.6060   24.9725 C   0  0  0  0  0  0  0  0  0  0  0  0
    8.7231    0.6291   24.1877 C   0  0  0  0  0  0  0  0  0  0  0  0
    9.8013    1.3468   23.4312 N   0  0  0  0  0  0  0  0  0  0  0  0
   11.2090    0.8294   23.4594 C   0  0  0  0  0  0  0  0  0  0  0  0
   12.2872    1.5471   22.7029 O   0  0  0  0  0  0  0  0  0  0  0  0
   11.5384   -0.4058   24.2442 C   0  0  0  0  0  0  0  0  0  0  0  0
   12.9460   -0.9232   24.2724 C   0  0  0  0  0  0  0  0  0  0  0  0
   13.2755   -2.1584   25.0571 C   0  0  0  0  0  0  0  0  0  0  0  0
   12.1972   -2.8761   25.8137 C   0  0  0  0  0  0  0  0  0  0  0  0
   12.5267   -4.1113   26.5985 F   0  0  0  0  0  0  0  0  0  0  0  0
   10.7896   -2.3587   25.7855 C   0  0  0  0  0  0  0  0  0  0  0  0
   10.4602   -1.1235   25.0007 C   0  0  0  0  0  0  0  0  0  0  0  0
    5.4301   -1.1904   26.2382 C   0  0  0  0  0  0  0  0  0  0  0  0
    4.4526   -0.5378   25.3064 C   0  0  0  0  0  0  0  0  0  0  0  0
    2.9908   -0.5237   25.6425 N   0  0  0  0  0  0  0  0  0  0  0  0
    2.5066   -1.1622   26.9105 C   0  0  0  0  0  0  0  0  0  0  0  0
    3.4842   -1.8148   27.8424 C   0  0  0  0  0  0  0  0  0  0  0  0
    3.0000   -2.4534   29.1104 C   0  0  0  0  0  0  0  0  0  0  0  0
    3.9777   -3.1060   30.0422 C   0  0  0  0  0  0  0  0  0  0  0  0
    5.4394   -3.1201   29.7060 C   0  0  0  0  0  0  0  0  0  0  0  0
    5.9236   -2.4816   28.4380 C   0  0  0  0  0  0  0  0  0  0  0  0
    4.9460   -1.8290   27.5062 C   0  0  0  0  0  0  0  0  0  0  0  0
    9.4719    2.5820   22.6464 C   0  0  0  0  0  0  0  0  0  0  0  0
    8.1701    2.6759   21.9072 C   0  0  0  0  0  0  0  0  0  0  0  0
    7.8751    1.7262   20.7842 O   0  0  0  0  0  0  0  0  0  0  0  0
    7.1634    3.7195   22.2908 N   0  0  0  0  0  0  0  0  0  0  0  0
    7.3570    4.3428   23.0278 H   0  0  0  0  0  0  0  0  0  0  0  0
    5.8615    3.8134   21.5515 C   0  0  0  0  0  0  0  0  0  0  0  0
    5.0969    5.1039   21.5401 C   0  0  0  0  0  0  0  0  0  0  0  0
    3.7354    4.5967   21.1675 F   0  0  0  0  0  0  0  0  0  0  0  0
    4.8052    6.5705   21.6581 C   0  0  0  0  0  0  0  0  0  0  0  0
    6.1930    6.0593   21.9088 C   0  0  0  0  0  0  0  0  0  0  0  0
  2  1  1  0  0  0
  2  3  1  0  0  0
  3  4  1  0  0  0
  4 19  1  0  0  0
 19 20  2  0  0  0
 20 21  1  0  0  0
 21 22  2  0  0  0
 22 23  1  0  0  0
 23 24  2  0  0  0
 24 25  1  0  0  0
 25 26  2  0  0  0
 26 27  1  0  0  0
 27 28  2  0  0  0
  4  5  1  0  0  0
  5  6  2  0  0  0
  5  7  1  0  0  0
  7  8  1  0  0  0
  8  9  1  0  0  0
  9 29  1  0  0  0
 29 30  1  0  0  0
 30 31  2  0  0  0
 30 32  1  0  0  0
 32 34  1  0  0  0
 34 35  1  0  0  0
 35 36  1  0  0  0
 35 37  1  0  0  0
 37 38  1  0  0  0
  9 10  1  0  0  0
 10 11  2  0  0  0
 10 12  1  0  0  0
 12 13  2  0  0  0
 13 14  1  0  0  0
 14 15  2  0  0  0
 15 16  1  0  0  0
 15 17  1  0  0  0
 17 18  2  0  0  0
  7  2  1  0  0  0
 38 35  1  0  0  0
 18 12  1  0  0  0
 28 19  1  0  0  0
 18  7  1  0  0  0
 28 23  1  0  0  0
 32 33  1  0  0  0
M  END
> <minimizedAffinity>
-8.01099

> <CNNscore>
0.5325990915

> <CNNaffinity>
6.7494292259

> <CNN_VS>
3.5947399139

> <CNNaffinity_variance>
0.2497818768

$$$$



 38 43  0  0  0  0  0  0  0  0999 V2000
   10.6309   -3.6123   25.5465 C   0  0  0  0  0  0  0  0  0  0  0  0
    9.4179   -3.3139   24.7161 C   0  0  0  0  0  0  0  0  0  0  0  0
    8.3869   -4.3986   24.8173 C   0  0  0  0  0  0  0  0  0  0  0  0
    7.2202   -4.0109   23.9579 N   0  0  0  0  0  0  0  0  0  0  0  0
    7.5303   -2.6866   23.3255 C   0  0  0  0  0  0  0  0  0  0  0  0
    6.6386   -1.9265   22.3890 O   0  0  0  0  0  0  0  0  0  0  0  0
    8.8885   -2.2557   23.7941 C   0  0  0  0  0  0  0  0  0  0  0  0
    8.2307   -1.2867   22.8570 C   0  0  0  0  0  0  0  0  0  0  0  0
    8.9357   -0.0201   22.4713 N   0  0  0  0  0  0  0  0  0  0  0  0
   10.2986    0.2774   23.0227 C   0  0  0  0  0  0  0  0  0  0  0  0
   11.0036    1.5439   22.6370 O   0  0  0  0  0  0  0  0  0  0  0  0
   10.9565   -0.6917   23.9599 C   0  0  0  0  0  0  0  0  0  0  0  0
   12.3193   -0.3941   24.5113 C   0  0  0  0  0  0  0  0  0  0  0  0
   12.9771   -1.3632   25.4484 C   0  0  0  0  0  0  0  0  0  0  0  0
   12.2721   -2.6297   25.8341 C   0  0  0  0  0  0  0  0  0  0  0  0
   12.9299   -3.5988   26.7713 F   0  0  0  0  0  0  0  0  0  0  0  0
   10.9092   -2.9273   25.2827 C   0  0  0  0  0  0  0  0  0  0  0  0
   10.2514   -1.9582   24.3455 C   0  0  0  0  0  0  0  0  0  0  0  0
    5.9641   -4.8077   23.7647 C   0  0  0  0  0  0  0  0  0  0  0  0
    5.6713   -5.4355   22.4344 C   0  0  0  0  0  0  0  0  0  0  0  0
    4.4152   -6.2322   22.2412 N   0  0  0  0  0  0  0  0  0  0  0  0
    3.4519   -6.4011   23.3785 C   0  0  0  0  0  0  0  0  0  0  0  0
    3.7447   -5.7733   24.7090 C   0  0  0  0  0  0  0  0  0  0  0  0
    2.7813   -5.9422   25.8463 C   0  0  0  0  0  0  0  0  0  0  0  0
    3.0742   -5.3143   27.1768 C   0  0  0  0  0  0  0  0  0  0  0  0
    4.3303   -4.5176   27.3698 C   0  0  0  0  0  0  0  0  0  0  0  0
    5.2936   -4.3487   26.2325 C   0  0  0  0  0  0  0  0  0  0  0  0
    5.0008   -4.9765   24.9021 C   0  0  0  0  0  0  0  0  0  0  0  0
    8.2779    0.9489   21.5341 C   0  0  0  0  0  0  0  0  0  0  0  0
    7.1500    0.4947   20.6557 C   0  0  0  0  0  0  0  0  0  0  0  0
    7.4421   -0.2128   19.3657 O   0  0  0  0  0  0  0  0  0  0  0  0
    5.7300    0.7480   21.0674 N   0  0  0  0  0  0  0  0  0  0  0  0
    5.5383    1.2124   21.9140 H   0  0  0  0  0  0  0  0  0  0  0  0
    4.6021    0.2938   20.1890 C   0  0  0  0  0  0  0  0  0  0  0  0
    3.8941    1.2796   19.3076 C   0  0  0  0  0  0  0  0  0  0  0  0
    4.5001    0.9259   17.9819 F   0  0  0  0  0  0  0  0  0  0  0  0
    2.9756    2.3883   18.8866 C   0  0  0  0  0  0  0  0  0  0  0  0
    3.0422    1.9757   20.3273 C   0  0  0  0  0  0  0  0  0  0  0  0
  2  1  1  0  0  0
  2  3  1  0  0  0
  3  4  1  0  0  0
  4 19  1  0  0  0
 19 20  2  0  0  0
 20 21  1  0  0  0
 21 22  2  0  0  0
 22 23  1  0  0  0
 23 24  2  0  0  0
 24 25  1  0  0  0
 25 26  2  0  0  0
 26 27  1  0  0  0
 27 28  2  0  0  0
  4  5  1  0  0  0
  5  6  2  0  0  0
  5  7  1  0  0  0
  7  8  1  0  0  0
  8  9  1  0  0  0
  9 29  1  0  0  0
 29 30  1  0  0  0
 30 31  2  0  0  0
 30 32  1  0  0  0
 32 34  1  0  0  0
 34 35  1  0  0  0
 35 36  1  0  0  0
 35 37  1  0  0  0
 37 38  1  0  0  0
  9 10  1  0  0  0
 10 11  2  0  0  0
 10 12  1  0  0  0
 12 13  2  0  0  0
 13 14  1  0  0  0
 14 15  2  0  0  0
 15 16  1  0  0  0
 15 17  1  0  0  0
 17 18  2  0  0  0
  7  2  1  0  0  0
 38 35  1  0  0  0
 18 12  1  0  0  0
 28 19  1  0  0  0
 18  7  1  0  0  0
 28 23  1  0  0  0
 32 33  1  0  0  0
M  END
> <minimizedAffinity>
-9.36471

> <CNNscore>
0.4399266243

> <CNNaffinity>
6.7364912033

> <CNN_VS>
2.9635617733

> <CNNaffinity_variance>
0.0850021318

$$$$



 38 43  0  0  0  0  0  0  0  0999 V2000
   11.1464   -2.6042   24.6332 C   0  0  0  0  0  0  0  0  0  0  0  0
    9.6708   -2.3349   24.6322 C   0  0  0  0  0  0  0  0  0  0  0  0
    8.8906   -3.4783   25.2102 C   0  0  0  0  0  0  0  0  0  0  0  0
    7.4357   -3.1161   25.1658 N   0  0  0  0  0  0  0  0  0  0  0  0
    7.3167   -1.7489   24.5603 C   0  0  0  0  0  0  0  0  0  0  0  0
    6.0403   -0.9966   24.3258 O   0  0  0  0  0  0  0  0  0  0  0  0
    8.6980   -1.2661   24.2306 C   0  0  0  0  0  0  0  0  0  0  0  0
    7.6118   -0.2925   23.8810 C   0  0  0  0  0  0  0  0  0  0  0  0
    7.9594    1.0274   23.2588 N   0  0  0  0  0  0  0  0  0  0  0  0
    9.3931    1.3737   22.9862 C   0  0  0  0  0  0  0  0  0  0  0  0
    9.7407    2.6936   22.3641 O   0  0  0  0  0  0  0  0  0  0  0  0
   10.4794    0.4001   23.3358 C   0  0  0  0  0  0  0  0  0  0  0  0
   11.9132    0.7464   23.0632 C   0  0  0  0  0  0  0  0  0  0  0  0
   12.9994   -0.2272   23.4128 C   0  0  0  0  0  0  0  0  0  0  0  0
   12.6518   -1.5471   24.0350 C   0  0  0  0  0  0  0  0  0  0  0  0
   13.7381   -2.5207   24.3845 F   0  0  0  0  0  0  0  0  0  0  0  0
   11.2181   -1.8934   24.3076 C   0  0  0  0  0  0  0  0  0  0  0  0
   10.1319   -0.9198   23.9580 C   0  0  0  0  0  0  0  0  0  0  0  0
    6.2993   -3.9710   25.6430 C   0  0  0  0  0  0  0  0  0  0  0  0
    5.7108   -5.0108   24.7362 C   0  0  0  0  0  0  0  0  0  0  0  0
    4.5744   -5.8657   25.2134 N   0  0  0  0  0  0  0  0  0  0  0  0
    4.0265   -5.6807   26.5975 C   0  0  0  0  0  0  0  0  0  0  0  0
    4.6151   -4.6409   27.5043 C   0  0  0  0  0  0  0  0  0  0  0  0
    4.0671   -4.4559   28.8884 C   0  0  0  0  0  0  0  0  0  0  0  0
    4.6557   -3.4160   29.7952 C   0  0  0  0  0  0  0  0  0  0  0  0
    5.7921   -2.5612   29.3179 C   0  0  0  0  0  0  0  0  0  0  0  0
    6.3400   -2.7462   27.9339 C   0  0  0  0  0  0  0  0  0  0  0  0
    5.7515   -3.7860   27.0271 C   0  0  0  0  0  0  0  0  0  0  0  0
    6.8731    2.0010   22.9092 C   0  0  0  0  0  0  0  0  0  0  0  0
    6.2112    1.9354   21.5648 C   0  0  0  0  0  0  0  0  0  0  0  0
    6.9223    1.2959   20.4092 O   0  0  0  0  0  0  0  0  0  0  0  0
    4.8382    2.5091   21.3760 N   0  0  0  0  0  0  0  0  0  0  0  0
    4.3715    2.9288   22.1345 H   0  0  0  0  0  0  0  0  0  0  0  0
    4.1763    2.4435   20.0315 C   0  0  0  0  0  0  0  0  0  0  0  0
    2.8482    3.1066   19.8162 C   0  0  0  0  0  0  0  0  0  0  0  0
    2.3244    2.2782   18.6808 F   0  0  0  0  0  0  0  0  0  0  0  0
    1.7021    4.0575   19.9952 C   0  0  0  0  0  0  0  0  0  0  0  0
    2.9108    4.1654   20.8769 C   0  0  0  0  0  0  0  0  0  0  0  0
  2  1  1  0  0  0
  2  3  1  0  0  0
  3  4  1  0  0  0
  4 19  1  0  0  0
 19 20  2  0  0  0
 20 21  1  0  0  0
 21 22  2  0  0  0
 22 23  1  0  0  0
 23 24  2  0  0  0
 24 25  1  0  0  0
 25 26  2  0  0  0
 26 27  1  0  0  0
 27 28  2  0  0  0
  4  5  1  0  0  0
  5  6  2  0  0  0
  5  7  1  0  0  0
  7  8  1  0  0  0
  8  9  1  0  0  0
  9 29  1  0  0  0
 29 30  1  0  0  0
 30 31  2  0  0  0
 30 32  1  0  0  0
 32 34  1  0  0  0
 34 35  1  0  0  0
 35 36  1  0  0  0
 35 37  1  0  0  0
 37 38  1  0  0  0
  9 10  1  0  0  0
 10 11  2  0  0  0
 10 12  1  0  0  0
 12 13  2  0  0  0
 13 14  1  0  0  0
 14 15  2  0  0  0
 15 16  1  0  0  0
 15 17  1  0  0  0
 17 18  2  0  0  0
  7  2  1  0  0  0
 38 35  1  0  0  0
 18 12  1  0  0  0
 28 19  1  0  0  0
 18  7  1  0  0  0
 28 23  1  0  0  0
 32 33  1  0  0  0
M  END
> <minimizedAffinity>
-8.20066

> <CNNscore>
0.4344550967

> <CNNaffinity>
6.6814031601

> <CNN_VS>
2.9027695656

> <CNNaffinity_variance>
0.1711236238

$$$$



 38 43  0  0  0  0  0  0  0  0999 V2000
   11.0039   -3.2966   26.2065 C   0  0  0  0  0  0  0  0  0  0  0  0
    9.6377   -2.9166   25.7173 C   0  0  0  0  0  0  0  0  0  0  0  0
    8.5731   -3.8196   26.2664 C   0  0  0  0  0  0  0  0  0  0  0  0
    7.2518   -3.3620   25.7234 N   0  0  0  0  0  0  0  0  0  0  0  0
    7.4998   -2.1763   24.8388 C   0  0  0  0  0  0  0  0  0  0  0  0
    6.4564   -1.4018   24.0894 O   0  0  0  0  0  0  0  0  0  0  0  0
    8.9743   -1.9010   24.8350 C   0  0  0  0  0  0  0  0  0  0  0  0
    8.1751   -0.9557   23.9879 C   0  0  0  0  0  0  0  0  0  0  0  0
    8.8652    0.1424   23.2342 N   0  0  0  0  0  0  0  0  0  0  0  0
   10.3544    0.2951   23.3276 C   0  0  0  0  0  0  0  0  0  0  0  0
   11.0445    1.3932   22.5739 O   0  0  0  0  0  0  0  0  0  0  0  0
   11.1537   -0.6502   24.1747 C   0  0  0  0  0  0  0  0  0  0  0  0
   12.6430   -0.4974   24.2681 C   0  0  0  0  0  0  0  0  0  0  0  0
   13.4422   -1.4427   25.1152 C   0  0  0  0  0  0  0  0  0  0  0  0
   12.7521   -2.5408   25.8689 C   0  0  0  0  0  0  0  0  0  0  0  0
   13.5514   -3.4861   26.7160 F   0  0  0  0  0  0  0  0  0  0  0  0
   11.2629   -2.6936   25.7755 C   0  0  0  0  0  0  0  0  0  0  0  0
   10.4637   -1.7483   24.9284 C   0  0  0  0  0  0  0  0  0  0  0  0
    5.9170   -3.9814   26.0140 C   0  0  0  0  0  0  0  0  0  0  0  0
    5.2028   -4.7585   24.9482 C   0  0  0  0  0  0  0  0  0  0  0  0
    3.8679   -5.3779   25.2388 N   0  0  0  0  0  0  0  0  0  0  0  0
    3.2472   -5.2201   26.5952 C   0  0  0  0  0  0  0  0  0  0  0  0
    3.9615   -4.4429   27.6610 C   0  0  0  0  0  0  0  0  0  0  0  0
    3.3407   -4.2852   29.0175 C   0  0  0  0  0  0  0  0  0  0  0  0
    4.0550   -3.5080   30.0832 C   0  0  0  0  0  0  0  0  0  0  0  0
    5.3898   -2.8887   29.7926 C   0  0  0  0  0  0  0  0  0  0  0  0
    6.0105   -3.0465   28.4362 C   0  0  0  0  0  0  0  0  0  0  0  0
    5.2963   -3.8236   27.3704 C   0  0  0  0  0  0  0  0  0  0  0  0
    8.0659    1.0877   22.3871 C   0  0  0  0  0  0  0  0  0  0  0  0
    7.3074    0.5727   21.2000 C   0  0  0  0  0  0  0  0  0  0  0  0
    7.8222   -0.6119   20.4373 O   0  0  0  0  0  0  0  0  0  0  0  0
    6.0340    1.2422   20.7756 N   0  0  0  0  0  0  0  0  0  0  0  0
    5.6960    2.0196   21.2762 H   0  0  0  0  0  0  0  0  0  0  0  0
    5.2753    0.7271   19.5884 C   0  0  0  0  0  0  0  0  0  0  0  0
    4.1752    1.5502   18.9867 C   0  0  0  0  0  0  0  0  0  0  0  0
    4.5779    1.5074   17.5424 F   0  0  0  0  0  0  0  0  0  0  0  0
    2.9352    2.3882   18.8865 C   0  0  0  0  0  0  0  0  0  0  0  0
    3.3904    1.8790   20.2220 C   0  0  0  0  0  0  0  0  0  0  0  0
  2  1  1  0  0  0
  2  3  1  0  0  0
  3  4  1  0  0  0
  4 19  1  0  0  0
 19 20  2  0  0  0
 20 21  1  0  0  0
 21 22  2  0  0  0
 22 23  1  0  0  0
 23 24  2  0  0  0
 24 25  1  0  0  0
 25 26  2  0  0  0
 26 27  1  0  0  0
 27 28  2  0  0  0
  4  5  1  0  0  0
  5  6  2  0  0  0
  5  7  1  0  0  0
  7  8  1  0  0  0
  8  9  1  0  0  0
  9 29  1  0  0  0
 29 30  1  0  0  0
 30 31  2  0  0  0
 30 32  1  0  0  0
 32 34  1  0  0  0
 34 35  1  0  0  0
 35 36  1  0  0  0
 35 37  1  0  0  0
 37 38  1  0  0  0
  9 10  1  0  0  0
 10 11  2  0  0  0
 10 12  1  0  0  0
 12 13  2  0  0  0
 13 14  1  0  0  0
 14 15  2  0  0  0
 15 16  1  0  0  0
 15 17  1  0  0  0
 17 18  2  0  0  0
  7  2  1  0  0  0
 38 35  1  0  0  0
 18 12  1  0  0  0
 28 19  1  0  0  0
 18  7  1  0  0  0
 28 23  1  0  0  0
 32 33  1  0  0  0
M  END
> <minimizedAffinity>
-8.83945

> <CNNscore>
0.3894306719

> <CNNaffinity>
6.6806802750

> <CNN_VS>
2.6016619205

> <CNNaffinity_variance>
0.0875182897

$$$$



 38 43  0  0  0  0  0  0  0  0999 V2000
   11.1371   -1.5056   25.3110 C   0  0  0  0  0  0  0  0  0  0  0  0
   10.5141   -0.5751   24.3129 C   0  0  0  0  0  0  0  0  0  0  0  0
   11.2374    0.7369   24.2401 C   0  0  0  0  0  0  0  0  0  0  0  0
   10.5440    1.5927   23.2219 N   0  0  0  0  0  0  0  0  0  0  0  0
    9.3920    0.8095   22.6654 C   0  0  0  0  0  0  0  0  0  0  0  0
    8.4279    1.2830   21.6184 O   0  0  0  0  0  0  0  0  0  0  0  0
    9.3735   -0.5303   23.3397 C   0  0  0  0  0  0  0  0  0  0  0  0
    8.2801   -0.3400   22.3307 C   0  0  0  0  0  0  0  0  0  0  0  0
    7.2942   -1.4415   22.0764 N   0  0  0  0  0  0  0  0  0  0  0  0
    7.4017   -2.7333   22.8311 C   0  0  0  0  0  0  0  0  0  0  0  0
    6.4158   -3.8348   22.5768 O   0  0  0  0  0  0  0  0  0  0  0  0
    8.4953   -2.9237   23.8401 C   0  0  0  0  0  0  0  0  0  0  0  0
    8.6028   -4.2155   24.5947 C   0  0  0  0  0  0  0  0  0  0  0  0
    9.6963   -4.4058   25.6037 C   0  0  0  0  0  0  0  0  0  0  0  0
   10.6822   -3.3043   25.8580 C   0  0  0  0  0  0  0  0  0  0  0  0
   11.7757   -3.4947   26.8670 F   0  0  0  0  0  0  0  0  0  0  0  0
   10.5746   -2.0125   25.1033 C   0  0  0  0  0  0  0  0  0  0  0  0
    9.4812   -1.8222   24.0944 C   0  0  0  0  0  0  0  0  0  0  0  0
   10.9340    2.9868   22.8291 C   0  0  0  0  0  0  0  0  0  0  0  0
   12.2880    3.2488   22.2394 C   0  0  0  0  0  0  0  0  0  0  0  0
   12.6780    4.6430   21.8466 N   0  0  0  0  0  0  0  0  0  0  0  0
   11.7138    5.7750   22.0436 C   0  0  0  0  0  0  0  0  0  0  0  0
   10.3597    5.5130   22.6333 C   0  0  0  0  0  0  0  0  0  0  0  0
    9.3956    6.6452   22.8303 C   0  0  0  0  0  0  0  0  0  0  0  0
    8.0415    6.3831   23.4200 C   0  0  0  0  0  0  0  0  0  0  0  0
    7.6516    4.9889   23.8128 C   0  0  0  0  0  0  0  0  0  0  0  0
    8.6157    3.8569   23.6158 C   0  0  0  0  0  0  0  0  0  0  0  0
    9.9698    4.1189   23.0261 C   0  0  0  0  0  0  0  0  0  0  0  0
    6.2006   -1.2511   21.0674 C   0  0  0  0  0  0  0  0  0  0  0  0
    5.9980    0.0891   20.4248 C   0  0  0  0  0  0  0  0  0  0  0  0
    6.7758    0.4569   19.1961 O   0  0  0  0  0  0  0  0  0  0  0  0
    5.0178    1.0613   21.0110 N   0  0  0  0  0  0  0  0  0  0  0  0
    4.5073    0.8199   21.8175 H   0  0  0  0  0  0  0  0  0  0  0  0
    4.8151    2.4015   20.3684 C   0  0  0  0  0  0  0  0  0  0  0  0
    3.5343    2.7019   19.6480 C   0  0  0  0  0  0  0  0  0  0  0  0
    3.7872    1.9829   18.3561 F   0  0  0  0  0  0  0  0  0  0  0  0
    2.1655    3.2520   19.3762 C   0  0  0  0  0  0  0  0  0  0  0  0
    2.8364    3.5253   20.6897 C   0  0  0  0  0  0  0  0  0  0  0  0
  2  1  1  0  0  0
  2  3  1  0  0  0
  3  4  1  0  0  0
  4 19  1  0  0  0
 19 20  2  0  0  0
 20 21  1  0  0  0
 21 22  2  0  0  0
 22 23  1  0  0  0
 23 24  2  0  0  0
 24 25  1  0  0  0
 25 26  2  0  0  0
 26 27  1  0  0  0
 27 28  2  0  0  0
  4  5  1  0  0  0
  5  6  2  0  0  0
  5  7  1  0  0  0
  7  8  1  0  0  0
  8  9  1  0  0  0
  9 29  1  0  0  0
 29 30  1  0  0  0
 30 31  2  0  0  0
 30 32  1  0  0  0
 32 34  1  0  0  0
 34 35  1  0  0  0
 35 36  1  0  0  0
 35 37  1  0  0  0
 37 38  1  0  0  0
  9 10  1  0  0  0
 10 11  2  0  0  0
 10 12  1  0  0  0
 12 13  2  0  0  0
 13 14  1  0  0  0
 14 15  2  0  0  0
 15 16  1  0  0  0
 15 17  1  0  0  0
 17 18  2  0  0  0
  7  2  1  0  0  0
 38 35  1  0  0  0
 18 12  1  0  0  0
 28 19  1  0  0  0
 18  7  1  0  0  0
 28 23  1  0  0  0
 32 33  1  0  0  0
M  END
> <minimizedAffinity>
-8.59889

> <CNNscore>
0.3714332581

> <CNNaffinity>
6.6891489029

> <CNN_VS>
2.4845724106

> <CNNaffinity_variance>
0.0699809566

$$$$



 38 43  0  0  0  0  0  0  0  0999 V2000
   10.7279   -3.6758   25.5256 C   0  0  0  0  0  0  0  0  0  0  0  0
    9.5360   -3.3469   24.6763 C   0  0  0  0  0  0  0  0  0  0  0  0
    8.4786   -4.4077   24.7570 C   0  0  0  0  0  0  0  0  0  0  0  0
    7.3356   -3.9905   23.8798 N   0  0  0  0  0  0  0  0  0  0  0  0
    7.6867   -2.6719   23.2569 C   0  0  0  0  0  0  0  0  0  0  0  0
    6.8284   -1.8886   22.3083 O   0  0  0  0  0  0  0  0  0  0  0  0
    9.0466   -2.2741   23.7492 C   0  0  0  0  0  0  0  0  0  0  0  0
    8.4270   -1.2874   22.8045 C   0  0  0  0  0  0  0  0  0  0  0  0
    9.1675   -0.0364   22.4346 N   0  0  0  0  0  0  0  0  0  0  0  0
   10.5276    0.2277   23.0093 C   0  0  0  0  0  0  0  0  0  0  0  0
   11.2681    1.4787   22.6394 O   0  0  0  0  0  0  0  0  0  0  0  0
   11.1473   -0.7590   23.9540 C   0  0  0  0  0  0  0  0  0  0  0  0
   12.5073   -0.4948   24.5288 C   0  0  0  0  0  0  0  0  0  0  0  0
   13.1269   -1.4816   25.4734 C   0  0  0  0  0  0  0  0  0  0  0  0
   12.3864   -2.7325   25.8433 C   0  0  0  0  0  0  0  0  0  0  0  0
   13.0060   -3.7193   26.7881 F   0  0  0  0  0  0  0  0  0  0  0  0
   11.0263   -2.9967   25.2686 C   0  0  0  0  0  0  0  0  0  0  0  0
   10.4068   -2.0099   24.3240 C   0  0  0  0  0  0  0  0  0  0  0  0
    6.0647   -4.7573   23.6634 C   0  0  0  0  0  0  0  0  0  0  0  0
    5.7612   -5.3411   22.3155 C   0  0  0  0  0  0  0  0  0  0  0  0
    4.4903   -6.1078   22.0991 N   0  0  0  0  0  0  0  0  0  0  0  0
    3.5229   -6.2908   23.2307 C   0  0  0  0  0  0  0  0  0  0  0  0
    3.8264   -5.7070   24.5787 C   0  0  0  0  0  0  0  0  0  0  0  0
    2.8589   -5.8900   25.7104 C   0  0  0  0  0  0  0  0  0  0  0  0
    3.1624   -5.3061   27.0584 C   0  0  0  0  0  0  0  0  0  0  0  0
    4.4333   -4.5394   27.2747 C   0  0  0  0  0  0  0  0  0  0  0  0
    5.4007   -4.3564   26.1430 C   0  0  0  0  0  0  0  0  0  0  0  0
    5.0973   -4.9402   24.7951 C   0  0  0  0  0  0  0  0  0  0  0  0
    8.5479    0.9503   21.4899 C   0  0  0  0  0  0  0  0  0  0  0  0
    7.1005    0.8246   21.1171 C   0  0  0  0  0  0  0  0  0  0  0  0
    6.7149    0.5129   19.7014 O   0  0  0  0  0  0  0  0  0  0  0  0
    6.0385    1.0106   22.1600 N   0  0  0  0  0  0  0  0  0  0  0  0
    6.2916    1.2152   23.0892 H   0  0  0  0  0  0  0  0  0  0  0  0
    4.5910    0.8849   21.7872 C   0  0  0  0  0  0  0  0  0  0  0  0
    3.5268    1.1797   22.8024 C   0  0  0  0  0  0  0  0  0  0  0  0
    2.6082    2.0311   21.9771 F   0  0  0  0  0  0  0  0  0  0  0  0
    2.7816    1.1788   24.1042 C   0  0  0  0  0  0  0  0  0  0  0  0
    4.0758    0.4306   23.9803 C   0  0  0  0  0  0  0  0  0  0  0  0
  2  1  1  0  0  0
  2  3  1  0  0  0
  3  4  1  0  0  0
  4 19  1  0  0  0
 19 20  2  0  0  0
 20 21  1  0  0  0
 21 22  2  0  0  0
 22 23  1  0  0  0
 23 24  2  0  0  0
 24 25  1  0  0  0
 25 26  2  0  0  0
 26 27  1  0  0  0
 27 28  2  0  0  0
  4  5  1  0  0  0
  5  6  2  0  0  0
  5  7  1  0  0  0
  7  8  1  0  0  0
  8  9  1  0  0  0
  9 29  1  0  0  0
 29 30  1  0  0  0
 30 31  2  0  0  0
 30 32  1  0  0  0
 32 34  1  0  0  0
 34 35  1  0  0  0
 35 36  1  0  0  0
 35 37  1  0  0  0
 37 38  1  0  0  0
  9 10  1  0  0  0
 10 11  2  0  0  0
 10 12  1  0  0  0
 12 13  2  0  0  0
 13 14  1  0  0  0
 14 15  2  0  0  0
 15 16  1  0  0  0
 15 17  1  0  0  0
 17 18  2  0  0  0
  7  2  1  0  0  0
 38 35  1  0  0  0
 18 12  1  0  0  0
 28 19  1  0  0  0
 18  7  1  0  0  0
 28 23  1  0  0  0
 32 33  1  0  0  0
M  END
> <minimizedAffinity>
-8.36862

> <CNNscore>
0.3626029193

> <CNNaffinity>
6.7287721634

> <CNN_VS>
2.4398725033

> <CNNaffinity_variance>
0.1268558502

$$$$
