


 38 43  0  0  0  0  0  0  0  0999 V2000
   -6.0766   -5.2344  -23.3104 C   0  0  0  0  0  0  0  0  0  0  0  0
   -6.6310   -3.9768  -22.7092 C   0  0  0  0  0  0  0  0  0  0  0  0
   -5.7173   -3.4016  -21.6679 C   0  0  0  0  0  0  0  0  0  0  0  0
   -6.3546   -2.1550  -21.1296 N   0  0  0  0  0  0  0  0  0  0  0  0
   -7.6622   -1.9599  -21.8382 C   0  0  0  0  0  0  0  0  0  0  0  0
   -8.6293   -0.8360  -21.6105 O   0  0  0  0  0  0  0  0  0  0  0  0
   -7.8331   -3.0858  -22.8144 C   0  0  0  0  0  0  0  0  0  0  0  0
   -8.9689   -2.1062  -22.8082 C   0  0  0  0  0  0  0  0  0  0  0  0
  -10.1367   -2.3060  -23.7281 N   0  0  0  0  0  0  0  0  0  0  0  0
  -10.1687   -3.4855  -24.6543 C   0  0  0  0  0  0  0  0  0  0  0  0
  -11.3365   -3.6853  -25.5742 O   0  0  0  0  0  0  0  0  0  0  0  0
   -9.0328   -4.4652  -24.6605 C   0  0  0  0  0  0  0  0  0  0  0  0
   -9.0647   -5.6447  -25.5867 C   0  0  0  0  0  0  0  0  0  0  0  0
   -7.9289   -6.6243  -25.5929 C   0  0  0  0  0  0  0  0  0  0  0  0
   -6.7611   -6.4245  -24.6730 C   0  0  0  0  0  0  0  0  0  0  0  0
   -5.6252   -7.4042  -24.6792 F   0  0  0  0  0  0  0  0  0  0  0  0
   -6.7291   -5.2450  -23.7468 C   0  0  0  0  0  0  0  0  0  0  0  0
   -7.8650   -4.2654  -23.7406 C   0  0  0  0  0  0  0  0  0  0  0  0
   -5.7845   -1.2606  -20.0690 C   0  0  0  0  0  0  0  0  0  0  0  0
   -6.2378   -1.4012  -18.6461 C   0  0  0  0  0  0  0  0  0  0  0  0
   -5.6677   -0.5068  -17.5855 N   0  0  0  0  0  0  0  0  0  0  0  0
   -4.6442    0.5282  -17.9478 C   0  0  0  0  0  0  0  0  0  0  0  0
   -4.1909    0.6688  -19.3707 C   0  0  0  0  0  0  0  0  0  0  0  0
   -3.1674    1.7039  -19.7330 C   0  0  0  0  0  0  0  0  0  0  0  0
   -2.7142    1.8445  -21.1560 C   0  0  0  0  0  0  0  0  0  0  0  0
   -3.2843    0.9501  -22.2165 C   0  0  0  0  0  0  0  0  0  0  0  0
   -4.3078   -0.0850  -21.8542 C   0  0  0  0  0  0  0  0  0  0  0  0
   -4.7610   -0.2256  -20.4314 C   0  0  0  0  0  0  0  0  0  0  0  0
  -11.2726   -1.3263  -23.7219 C   0  0  0  0  0  0  0  0  0  0  0  0
  -11.0011    0.1380  -23.9006 C   0  0  0  0  0  0  0  0  0  0  0  0
   -9.8229    0.5888  -24.7122 O   0  0  0  0  0  0  0  0  0  0  0  0
  -11.9077    1.1516  -23.2676 N   0  0  0  0  0  0  0  0  0  0  0  0
  -12.6809    0.8558  -22.7349 H   0  0  0  0  0  0  0  0  0  0  0  0
  -11.6361    2.6160  -23.4463 C   0  0  0  0  0  0  0  0  0  0  0  0
  -12.5390    3.6296  -22.8079 C   0  0  0  0  0  0  0  0  0  0  0  0
  -12.8003    2.9548  -21.4941 F   0  0  0  0  0  0  0  0  0  0  0  0
  -13.3511    4.8775  -22.6259 C   0  0  0  0  0  0  0  0  0  0  0  0
  -12.5913    4.6564  -23.9002 C   0  0  0  0  0  0  0  0  0  0  0  0
  2  1  1  0  0  0
  2  3  1  0  0  0
  3  4  1  0  0  0
  4 19  1  0  0  0
 19 20  2  0  0  0
 20 21  1  0  0  0
 21 22  2  0  0  0
 22 23  1  0  0  0
 23 24  2  0  0  0
 24 25  1  0  0  0
 25 26  2  0  0  0
 26 27  1  0  0  0
 27 28  2  0  0  0
  4  5  1  0  0  0
  5  6  2  0  0  0
  5  7  1  0  0  0
  7  8  1  0  0  0
  8  9  1  0  0  0
  9 29  1  0  0  0
 29 30  1  0  0  0
 30 31  2  0  0  0
 30 32  1  0  0  0
 32 34  1  0  0  0
 34 35  1  0  0  0
 35 36  1  0  0  0
 35 37  1  0  0  0
 37 38  1  0  0  0
  9 10  1  0  0  0
 10 11  2  0  0  0
 10 12  1  0  0  0
 12 13  2  0  0  0
 13 14  1  0  0  0
 14 15  2  0  0  0
 15 16  1  0  0  0
 15 17  1  0  0  0
 17 18  2  0  0  0
  7  2  1  0  0  0
 38 35  1  0  0  0
 18 12  1  0  0  0
 28 19  1  0  0  0
 18  7  1  0  0  0
 28 23  1  0  0  0
 32 33  1  0  0  0
M  END
> <minimizedAffinity>
-8.93860

> <CNNscore>
0.5246704817

> <CNNaffinity>
6.5899643898

> <CNN_VS>
3.4575598240

> <CNNaffinity_variance>
0.2180022448

$$$$



 38 43  0  0  0  0  0  0  0  0999 V2000
   -5.9991    3.6251  -24.5522 C   0  0  0  0  0  0  0  0  0  0  0  0
   -6.8071    2.6696  -23.7251 C   0  0  0  0  0  0  0  0  0  0  0  0
   -8.2608    2.6977  -24.0939 C   0  0  0  0  0  0  0  0  0  0  0  0
   -8.9803    1.7155  -23.2177 N   0  0  0  0  0  0  0  0  0  0  0  0
   -7.9713    1.0804  -22.3075 C   0  0  0  0  0  0  0  0  0  0  0  0
   -8.2555    0.0385  -21.2665 O   0  0  0  0  0  0  0  0  0  0  0  0
   -6.6282    1.6700  -22.6211 C   0  0  0  0  0  0  0  0  0  0  0  0
   -6.6039    0.6451  -21.5262 C   0  0  0  0  0  0  0  0  0  0  0  0
   -5.3091    0.2964  -20.8538 N   0  0  0  0  0  0  0  0  0  0  0  0
   -4.0387    0.9727  -21.2764 C   0  0  0  0  0  0  0  0  0  0  0  0
   -2.7440    0.6240  -20.6040 O   0  0  0  0  0  0  0  0  0  0  0  0
   -4.0629    1.9977  -22.3713 C   0  0  0  0  0  0  0  0  0  0  0  0
   -2.7925    2.6739  -22.7939 C   0  0  0  0  0  0  0  0  0  0  0  0
   -2.8168    3.6989  -23.8888 C   0  0  0  0  0  0  0  0  0  0  0  0
   -4.1115    4.0475  -24.5611 C   0  0  0  0  0  0  0  0  0  0  0  0
   -4.1357    5.0725  -25.6561 F   0  0  0  0  0  0  0  0  0  0  0  0
   -5.3819    3.3713  -24.1386 C   0  0  0  0  0  0  0  0  0  0  0  0
   -5.3577    2.3464  -23.0437 C   0  0  0  0  0  0  0  0  0  0  0  0
  -10.4507    1.4203  -23.2467 C   0  0  0  0  0  0  0  0  0  0  0  0
  -11.4395    2.5439  -23.3446 C   0  0  0  0  0  0  0  0  0  0  0  0
  -12.9098    2.2486  -23.3736 N   0  0  0  0  0  0  0  0  0  0  0  0
  -13.3913    0.8297  -23.3046 C   0  0  0  0  0  0  0  0  0  0  0  0
  -12.4025   -0.2940  -23.2067 C   0  0  0  0  0  0  0  0  0  0  0  0
  -12.8841   -1.7130  -23.1377 C   0  0  0  0  0  0  0  0  0  0  0  0
  -11.8951   -2.8366  -23.0398 C   0  0  0  0  0  0  0  0  0  0  0  0
  -10.4248   -2.5412  -23.0109 C   0  0  0  0  0  0  0  0  0  0  0  0
   -9.9433   -1.1223  -23.0798 C   0  0  0  0  0  0  0  0  0  0  0  0
  -10.9321    0.0013  -23.1777 C   0  0  0  0  0  0  0  0  0  0  0  0
   -5.2849   -0.7286  -19.7589 C   0  0  0  0  0  0  0  0  0  0  0  0
   -5.3671   -2.1879  -20.0957 C   0  0  0  0  0  0  0  0  0  0  0  0
   -5.0929   -3.2179  -19.0402 O   0  0  0  0  0  0  0  0  0  0  0  0
   -5.7234   -2.6173  -21.4880 N   0  0  0  0  0  0  0  0  0  0  0  0
   -5.9034   -1.9413  -22.1807 H   0  0  0  0  0  0  0  0  0  0  0  0
   -5.8056   -4.0767  -21.8249 C   0  0  0  0  0  0  0  0  0  0  0  0
   -6.4903   -4.5183  -23.0843 C   0  0  0  0  0  0  0  0  0  0  0  0
   -6.3560   -6.0059  -22.9460 F   0  0  0  0  0  0  0  0  0  0  0  0
   -7.2215   -4.4433  -24.3918 C   0  0  0  0  0  0  0  0  0  0  0  0
   -6.8623   -3.1841  -23.6601 C   0  0  0  0  0  0  0  0  0  0  0  0
  2  1  1  0  0  0
  2  3  1  0  0  0
  3  4  1  0  0  0
  4 19  1  0  0  0
 19 20  2  0  0  0
 20 21  1  0  0  0
 21 22  2  0  0  0
 22 23  1  0  0  0
 23 24  2  0  0  0
 24 25  1  0  0  0
 25 26  2  0  0  0
 26 27  1  0  0  0
 27 28  2  0  0  0
  4  5  1  0  0  0
  5  6  2  0  0  0
  5  7  1  0  0  0
  7  8  1  0  0  0
  8  9  1  0  0  0
  9 29  1  0  0  0
 29 30  1  0  0  0
 30 31  2  0  0  0
 30 32  1  0  0  0
 32 34  1  0  0  0
 34 35  1  0  0  0
 35 36  1  0  0  0
 35 37  1  0  0  0
 37 38  1  0  0  0
  9 10  1  0  0  0
 10 11  2  0  0  0
 10 12  1  0  0  0
 12 13  2  0  0  0
 13 14  1  0  0  0
 14 15  2  0  0  0
 15 16  1  0  0  0
 15 17  1  0  0  0
 17 18  2  0  0  0
  7  2  1  0  0  0
 38 35  1  0  0  0
 18 12  1  0  0  0
 28 19  1  0  0  0
 18  7  1  0  0  0
 28 23  1  0  0  0
 32 33  1  0  0  0
M  END
> <minimizedAffinity>
-7.90447

> <CNNscore>
0.5083586574

> <CNNaffinity>
6.7262191772

> <CNN_VS>
3.4193317890

> <CNNaffinity_variance>
0.0449077860

$$$$



 38 43  0  0  0  0  0  0  0  0999 V2000
  -10.1136   -4.3702  -25.9430 C   0  0  0  0  0  0  0  0  0  0  0  0
   -9.3537   -3.3870  -25.1028 C   0  0  0  0  0  0  0  0  0  0  0  0
   -9.8288   -1.9803  -25.3162 C   0  0  0  0  0  0  0  0  0  0  0  0
   -9.0136   -1.0776  -24.4383 N   0  0  0  0  0  0  0  0  0  0  0  0
   -8.0347   -1.9264  -23.6825 C   0  0  0  0  0  0  0  0  0  0  0  0
   -7.0232   -1.4343  -22.6902 O   0  0  0  0  0  0  0  0  0  0  0  0
   -8.2449   -3.3537  -24.0931 C   0  0  0  0  0  0  0  0  0  0  0  0
   -7.1567   -3.1649  -23.0782 C   0  0  0  0  0  0  0  0  0  0  0  0
   -6.3924   -4.3507  -22.5686 N   0  0  0  0  0  0  0  0  0  0  0  0
   -6.7161   -5.7253  -23.0740 C   0  0  0  0  0  0  0  0  0  0  0  0
   -5.9518   -6.9111  -22.5645 O   0  0  0  0  0  0  0  0  0  0  0  0
   -7.8044   -5.9142  -24.0891 C   0  0  0  0  0  0  0  0  0  0  0  0
   -8.1281   -7.2889  -24.5945 C   0  0  0  0  0  0  0  0  0  0  0  0
   -9.2163   -7.4777  -25.6095 C   0  0  0  0  0  0  0  0  0  0  0  0
   -9.9806   -6.2919  -26.1190 C   0  0  0  0  0  0  0  0  0  0  0  0
  -11.0689   -6.4808  -27.1340 F   0  0  0  0  0  0  0  0  0  0  0  0
   -9.6569   -4.9173  -25.6136 C   0  0  0  0  0  0  0  0  0  0  0  0
   -8.5687   -4.7284  -24.5986 C   0  0  0  0  0  0  0  0  0  0  0  0
   -9.1528    0.4123  -24.3346 C   0  0  0  0  0  0  0  0  0  0  0  0
   -7.9672    1.2957  -24.5871 C   0  0  0  0  0  0  0  0  0  0  0  0
   -8.1064    2.7856  -24.4833 N   0  0  0  0  0  0  0  0  0  0  0  0
   -9.4312    3.3920  -24.1270 C   0  0  0  0  0  0  0  0  0  0  0  0
  -10.6169    2.5086  -23.8745 C   0  0  0  0  0  0  0  0  0  0  0  0
  -11.9418    3.1151  -23.5182 C   0  0  0  0  0  0  0  0  0  0  0  0
  -13.1274    2.2315  -23.2657 C   0  0  0  0  0  0  0  0  0  0  0  0
  -12.9881    0.7417  -23.3694 C   0  0  0  0  0  0  0  0  0  0  0  0
  -11.6633    0.1353  -23.7257 C   0  0  0  0  0  0  0  0  0  0  0  0
  -10.4777    1.0187  -23.9783 C   0  0  0  0  0  0  0  0  0  0  0  0
   -5.3042   -4.1618  -21.5536 C   0  0  0  0  0  0  0  0  0  0  0  0
   -5.5308   -3.2713  -20.3680 C   0  0  0  0  0  0  0  0  0  0  0  0
   -5.2416   -3.7755  -18.9852 O   0  0  0  0  0  0  0  0  0  0  0  0
   -6.0466   -1.8767  -20.5652 N   0  0  0  0  0  0  0  0  0  0  0  0
   -6.2365   -1.5459  -21.4728 H   0  0  0  0  0  0  0  0  0  0  0  0
   -6.2733   -0.9862  -19.3795 C   0  0  0  0  0  0  0  0  0  0  0  0
   -5.2072   -0.0220  -18.9511 C   0  0  0  0  0  0  0  0  0  0  0  0
   -5.1613   -0.3204  -17.4818 F   0  0  0  0  0  0  0  0  0  0  0  0
   -4.1570    1.0459  -19.0329 C   0  0  0  0  0  0  0  0  0  0  0  0
   -4.8828    0.6113  -20.2716 C   0  0  0  0  0  0  0  0  0  0  0  0
  2  1  1  0  0  0
  2  3  1  0  0  0
  3  4  1  0  0  0
  4 19  1  0  0  0
 19 20  2  0  0  0
 20 21  1  0  0  0
 21 22  2  0  0  0
 22 23  1  0  0  0
 23 24  2  0  0  0
 24 25  1  0  0  0
 25 26  2  0  0  0
 26 27  1  0  0  0
 27 28  2  0  0  0
  4  5  1  0  0  0
  5  6  2  0  0  0
  5  7  1  0  0  0
  7  8  1  0  0  0
  8  9  1  0  0  0
  9 29  1  0  0  0
 29 30  1  0  0  0
 30 31  2  0  0  0
 30 32  1  0  0  0
 32 34  1  0  0  0
 34 35  1  0  0  0
 35 36  1  0  0  0
 35 37  1  0  0  0
 37 38  1  0  0  0
  9 10  1  0  0  0
 10 11  2  0  0  0
 10 12  1  0  0  0
 12 13  2  0  0  0
 13 14  1  0  0  0
 14 15  2  0  0  0
 15 16  1  0  0  0
 15 17  1  0  0  0
 17 18  2  0  0  0
  7  2  1  0  0  0
 38 35  1  0  0  0
 18 12  1  0  0  0
 28 19  1  0  0  0
 18  7  1  0  0  0
 28 23  1  0  0  0
 32 33  1  0  0  0
M  END
> <minimizedAffinity>
-8.54373

> <CNNscore>
0.4222499728

> <CNNaffinity>
6.7013449669

> <CNN_VS>
2.8296427727

> <CNNaffinity_variance>
0.3106386960

$$$$



 38 43  0  0  0  0  0  0  0  0999 V2000
   -9.6181   -4.8659  -25.4539 C   0  0  0  0  0  0  0  0  0  0  0  0
   -9.5464   -3.6937  -24.5207 C   0  0  0  0  0  0  0  0  0  0  0  0
  -10.6592   -2.7166  -24.7594 C   0  0  0  0  0  0  0  0  0  0  0  0
  -10.5019   -1.5877  -23.7843 N   0  0  0  0  0  0  0  0  0  0  0  0
   -9.2920   -1.8672  -22.9429 C   0  0  0  0  0  0  0  0  0  0  0  0
   -8.7651   -0.9977  -21.8400 O   0  0  0  0  0  0  0  0  0  0  0  0
   -8.7014   -3.1688  -23.3981 C   0  0  0  0  0  0  0  0  0  0  0  0
   -7.9546   -2.5215  -22.2697 C   0  0  0  0  0  0  0  0  0  0  0  0
   -6.7335   -3.1821  -21.7018 N   0  0  0  0  0  0  0  0  0  0  0  0
   -6.2591   -4.4900  -22.2624 C   0  0  0  0  0  0  0  0  0  0  0  0
   -5.0380   -5.1506  -21.6946 O   0  0  0  0  0  0  0  0  0  0  0  0
   -7.0059   -5.1374  -23.3909 C   0  0  0  0  0  0  0  0  0  0  0  0
   -6.5315   -6.4453  -23.9515 C   0  0  0  0  0  0  0  0  0  0  0  0
   -7.2783   -7.0926  -25.0799 C   0  0  0  0  0  0  0  0  0  0  0  0
   -8.4994   -6.4319  -25.6477 C   0  0  0  0  0  0  0  0  0  0  0  0
   -9.2462   -7.0793  -26.7761 F   0  0  0  0  0  0  0  0  0  0  0  0
   -8.9738   -5.1240  -25.0871 C   0  0  0  0  0  0  0  0  0  0  0  0
   -8.2270   -4.4768  -23.9587 C   0  0  0  0  0  0  0  0  0  0  0  0
  -11.3974   -0.3897  -23.6704 C   0  0  0  0  0  0  0  0  0  0  0  0
  -12.8275   -0.5595  -23.2514 C   0  0  0  0  0  0  0  0  0  0  0  0
  -13.7230    0.6385  -23.1375 N   0  0  0  0  0  0  0  0  0  0  0  0
  -13.1882    2.0062  -23.4428 C   0  0  0  0  0  0  0  0  0  0  0  0
  -11.7579    2.1760  -23.8618 C   0  0  0  0  0  0  0  0  0  0  0  0
  -11.2232    3.5439  -24.1671 C   0  0  0  0  0  0  0  0  0  0  0  0
   -9.7929    3.7135  -24.5862 C   0  0  0  0  0  0  0  0  0  0  0  0
   -8.8976    2.5156  -24.7000 C   0  0  0  0  0  0  0  0  0  0  0  0
   -9.4323    1.1478  -24.3947 C   0  0  0  0  0  0  0  0  0  0  0  0
  -10.8625    0.9780  -23.9757 C   0  0  0  0  0  0  0  0  0  0  0  0
   -5.9867   -2.5348  -20.5734 C   0  0  0  0  0  0  0  0  0  0  0  0
   -6.0352   -1.0458  -20.3985 C   0  0  0  0  0  0  0  0  0  0  0  0
   -6.8900   -0.4444  -19.3226 O   0  0  0  0  0  0  0  0  0  0  0  0
   -5.2288   -0.1582  -21.2996 N   0  0  0  0  0  0  0  0  0  0  0  0
   -4.6678   -0.5530  -22.0057 H   0  0  0  0  0  0  0  0  0  0  0  0
   -5.2773    1.3308  -21.1247 C   0  0  0  0  0  0  0  0  0  0  0  0
   -4.0169    2.0945  -20.8455 C   0  0  0  0  0  0  0  0  0  0  0  0
   -4.0670    3.0966  -21.9604 F   0  0  0  0  0  0  0  0  0  0  0  0
   -2.7390    2.5103  -20.1790 C   0  0  0  0  0  0  0  0  0  0  0  0
   -3.5289    1.3576  -19.6334 C   0  0  0  0  0  0  0  0  0  0  0  0
  2  1  1  0  0  0
  2  3  1  0  0  0
  3  4  1  0  0  0
  4 19  1  0  0  0
 19 20  2  0  0  0
 20 21  1  0  0  0
 21 22  2  0  0  0
 22 23  1  0  0  0
 23 24  2  0  0  0
 24 25  1  0  0  0
 25 26  2  0  0  0
 26 27  1  0  0  0
 27 28  2  0  0  0
  4  5  1  0  0  0
  5  6  2  0  0  0
  5  7  1  0  0  0
  7  8  1  0  0  0
  8  9  1  0  0  0
  9 29  1  0  0  0
 29 30  1  0  0  0
 30 31  2  0  0  0
 30 32  1  0  0  0
 32 34  1  0  0  0
 34 35  1  0  0  0
 35 36  1  0  0  0
 35 37  1  0  0  0
 37 38  1  0  0  0
  9 10  1  0  0  0
 10 11  2  0  0  0
 10 12  1  0  0  0
 12 13  2  0  0  0
 13 14  1  0  0  0
 14 15  2  0  0  0
 15 16  1  0  0  0
 15 17  1  0  0  0
 17 18  2  0  0  0
  7  2  1  0  0  0
 38 35  1  0  0  0
 18 12  1  0  0  0
 28 19  1  0  0  0
 18  7  1  0  0  0
 28 23  1  0  0  0
 32 33  1  0  0  0
M  END
> <minimizedAffinity>
-8.40715

> <CNNscore>
0.4216927290

> <CNNaffinity>
6.6220612526

> <CNN_VS>
2.7924749851

> <CNNaffinity_variance>
0.0637434870

$$$$



 38 43  0  0  0  0  0  0  0  0999 V2000
   -7.9745   -3.5878  -24.5970 C   0  0  0  0  0  0  0  0  0  0  0  0
   -8.1755   -2.3903  -23.7162 C   0  0  0  0  0  0  0  0  0  0  0  0
   -9.0839   -1.3760  -24.3455 C   0  0  0  0  0  0  0  0  0  0  0  0
   -9.2217   -0.2241  -23.3947 N   0  0  0  0  0  0  0  0  0  0  0  0
   -8.3985   -0.5265  -22.1778 C   0  0  0  0  0  0  0  0  0  0  0  0
   -8.2483    0.3552  -20.9736 O   0  0  0  0  0  0  0  0  0  0  0  0
   -7.7519   -1.8653  -22.3765 C   0  0  0  0  0  0  0  0  0  0  0  0
   -7.4161   -1.2139  -21.0677 C   0  0  0  0  0  0  0  0  0  0  0  0
   -6.5058   -1.9061  -20.0971 N   0  0  0  0  0  0  0  0  0  0  0  0
   -5.9313   -3.2498  -20.4352 C   0  0  0  0  0  0  0  0  0  0  0  0
   -5.0210   -3.9420  -19.4645 O   0  0  0  0  0  0  0  0  0  0  0  0
   -6.2671   -3.9013  -21.7440 C   0  0  0  0  0  0  0  0  0  0  0  0
   -5.6926   -5.2450  -22.0820 C   0  0  0  0  0  0  0  0  0  0  0  0
   -6.0284   -5.8965  -23.3908 C   0  0  0  0  0  0  0  0  0  0  0  0
   -6.9387   -5.2043  -24.3614 C   0  0  0  0  0  0  0  0  0  0  0  0
   -7.2745   -5.8558  -25.6702 F   0  0  0  0  0  0  0  0  0  0  0  0
   -7.5132   -3.8606  -24.0233 C   0  0  0  0  0  0  0  0  0  0  0  0
   -7.1774   -3.2091  -22.7146 C   0  0  0  0  0  0  0  0  0  0  0  0
  -10.0391    1.0131  -23.6211 C   0  0  0  0  0  0  0  0  0  0  0  0
  -11.4981    1.0220  -23.2732 C   0  0  0  0  0  0  0  0  0  0  0  0
  -12.3156    2.2591  -23.4996 N   0  0  0  0  0  0  0  0  0  0  0  0
  -11.6739    3.4873  -24.0738 C   0  0  0  0  0  0  0  0  0  0  0  0
  -10.2149    3.4784  -24.4218 C   0  0  0  0  0  0  0  0  0  0  0  0
   -9.5732    4.7067  -24.9961 C   0  0  0  0  0  0  0  0  0  0  0  0
   -8.1142    4.6976  -25.3440 C   0  0  0  0  0  0  0  0  0  0  0  0
   -7.2968    3.4605  -25.1176 C   0  0  0  0  0  0  0  0  0  0  0  0
   -7.9384    2.2323  -24.5433 C   0  0  0  0  0  0  0  0  0  0  0  0
   -9.3974    2.2412  -24.1954 C   0  0  0  0  0  0  0  0  0  0  0  0
   -6.1700   -1.2546  -18.7883 C   0  0  0  0  0  0  0  0  0  0  0  0
   -5.3169   -0.0211  -18.7616 C   0  0  0  0  0  0  0  0  0  0  0  0
   -5.3960    0.9205  -17.5966 O   0  0  0  0  0  0  0  0  0  0  0  0
   -4.3847    0.2708  -19.8999 N   0  0  0  0  0  0  0  0  0  0  0  0
   -4.3328   -0.3472  -20.6645 H   0  0  0  0  0  0  0  0  0  0  0  0
   -3.5315    1.5043  -19.8733 C   0  0  0  0  0  0  0  0  0  0  0  0
   -2.2336    1.5348  -20.6245 C   0  0  0  0  0  0  0  0  0  0  0  0
   -1.3187    2.0298  -19.5438 F   0  0  0  0  0  0  0  0  0  0  0  0
   -1.2534    1.3934  -21.7510 C   0  0  0  0  0  0  0  0  0  0  0  0
   -2.6977    1.0504  -21.9661 C   0  0  0  0  0  0  0  0  0  0  0  0
  2  1  1  0  0  0
  2  3  1  0  0  0
  3  4  1  0  0  0
  4 19  1  0  0  0
 19 20  2  0  0  0
 20 21  1  0  0  0
 21 22  2  0  0  0
 22 23  1  0  0  0
 23 24  2  0  0  0
 24 25  1  0  0  0
 25 26  2  0  0  0
 26 27  1  0  0  0
 27 28  2  0  0  0
  4  5  1  0  0  0
  5  6  2  0  0  0
  5  7  1  0  0  0
  7  8  1  0  0  0
  8  9  1  0  0  0
  9 29  1  0  0  0
 29 30  1  0  0  0
 30 31  2  0  0  0
 30 32  1  0  0  0
 32 34  1  0  0  0
 34 35  1  0  0  0
 35 36  1  0  0  0
 35 37  1  0  0  0
 37 38  1  0  0  0
  9 10  1  0  0  0
 10 11  2  0  0  0
 10 12  1  0  0  0
 12 13  2  0  0  0
 13 14  1  0  0  0
 14 15  2  0  0  0
 15 16  1  0  0  0
 15 17  1  0  0  0
 17 18  2  0  0  0
  7  2  1  0  0  0
 38 35  1  0  0  0
 18 12  1  0  0  0
 28 19  1  0  0  0
 18  7  1  0  0  0
 28 23  1  0  0  0
 32 33  1  0  0  0
M  END
> <minimizedAffinity>
-8.44040

> <CNNscore>
0.3630392551

> <CNNaffinity>
6.4221138954

> <CNN_VS>
2.3314795494

> <CNNaffinity_variance>
0.0475051850

$$$$



 38 43  0  0  0  0  0  0  0  0999 V2000
   -5.9963    4.0936  -23.5202 C   0  0  0  0  0  0  0  0  0  0  0  0
   -6.7862    2.9284  -23.0018 C   0  0  0  0  0  0  0  0  0  0  0  0
   -8.1540    2.8601  -23.6136 C   0  0  0  0  0  0  0  0  0  0  0  0
   -8.8613    1.6702  -23.0359 N   0  0  0  0  0  0  0  0  0  0  0  0
   -7.9306    1.0031  -22.0670 C   0  0  0  0  0  0  0  0  0  0  0  0
   -8.2298   -0.2258  -21.2607 O   0  0  0  0  0  0  0  0  0  0  0  0
   -6.6481    1.7808  -22.0459 C   0  0  0  0  0  0  0  0  0  0  0  0
   -6.6563    0.5929  -21.1301 C   0  0  0  0  0  0  0  0  0  0  0  0
   -5.4479    0.2781  -20.2990 N   0  0  0  0  0  0  0  0  0  0  0  0
   -4.2312    1.1512  -20.3839 C   0  0  0  0  0  0  0  0  0  0  0  0
   -3.0228    0.8364  -19.5528 O   0  0  0  0  0  0  0  0  0  0  0  0
   -4.2229    2.3392  -21.2998 C   0  0  0  0  0  0  0  0  0  0  0  0
   -3.0061    3.2123  -21.3846 C   0  0  0  0  0  0  0  0  0  0  0  0
   -2.9979    4.4001  -22.3005 C   0  0  0  0  0  0  0  0  0  0  0  0
   -4.2063    4.7149  -23.1315 C   0  0  0  0  0  0  0  0  0  0  0  0
   -4.1980    5.9028  -24.0474 F   0  0  0  0  0  0  0  0  0  0  0  0
   -5.4230    3.8418  -23.0467 C   0  0  0  0  0  0  0  0  0  0  0  0
   -5.4313    2.6539  -22.1308 C   0  0  0  0  0  0  0  0  0  0  0  0
  -10.2547    1.2254  -23.3686 C   0  0  0  0  0  0  0  0  0  0  0  0
  -10.5380   -0.2252  -23.6239 C   0  0  0  0  0  0  0  0  0  0  0  0
  -11.9314   -0.6700  -23.9565 N   0  0  0  0  0  0  0  0  0  0  0  0
  -13.0414    0.3359  -24.0339 C   0  0  0  0  0  0  0  0  0  0  0  0
  -12.7580    1.7866  -23.7786 C   0  0  0  0  0  0  0  0  0  0  0  0
  -13.8681    2.7926  -23.8560 C   0  0  0  0  0  0  0  0  0  0  0  0
  -13.5846    4.2432  -23.6007 C   0  0  0  0  0  0  0  0  0  0  0  0
  -12.1913    4.6879  -23.2680 C   0  0  0  0  0  0  0  0  0  0  0  0
  -11.0813    3.6820  -23.1906 C   0  0  0  0  0  0  0  0  0  0  0  0
  -11.3646    2.2314  -23.4459 C   0  0  0  0  0  0  0  0  0  0  0  0
   -5.4562   -0.9098  -19.3831 C   0  0  0  0  0  0  0  0  0  0  0  0
   -5.5386   -2.2951  -19.9523 C   0  0  0  0  0  0  0  0  0  0  0  0
   -5.1592   -3.4763  -19.1091 O   0  0  0  0  0  0  0  0  0  0  0  0
   -6.0003   -2.4994  -21.3648 N   0  0  0  0  0  0  0  0  0  0  0  0
   -6.2493   -1.7242  -21.9182 H   0  0  0  0  0  0  0  0  0  0  0  0
   -6.0826   -3.8848  -21.9341 C   0  0  0  0  0  0  0  0  0  0  0  0
   -7.2303   -4.2636  -22.8224 C   0  0  0  0  0  0  0  0  0  0  0  0
   -7.4375   -5.6844  -22.3886 F   0  0  0  0  0  0  0  0  0  0  0  0
   -8.3062   -4.1490  -23.8614 C   0  0  0  0  0  0  0  0  0  0  0  0
   -7.4218   -2.9742  -23.5647 C   0  0  0  0  0  0  0  0  0  0  0  0
  2  1  1  0  0  0
  2  3  1  0  0  0
  3  4  1  0  0  0
  4 19  1  0  0  0
 19 20  2  0  0  0
 20 21  1  0  0  0
 21 22  2  0  0  0
 22 23  1  0  0  0
 23 24  2  0  0  0
 24 25  1  0  0  0
 25 26  2  0  0  0
 26 27  1  0  0  0
 27 28  2  0  0  0
  4  5  1  0  0  0
  5  6  2  0  0  0
  5  7  1  0  0  0
  7  8  1  0  0  0
  8  9  1  0  0  0
  9 29  1  0  0  0
 29 30  1  0  0  0
 30 31  2  0  0  0
 30 32  1  0  0  0
 32 34  1  0  0  0
 34 35  1  0  0  0
 35 36  1  0  0  0
 35 37  1  0  0  0
 37 38  1  0  0  0
  9 10  1  0  0  0
 10 11  2  0  0  0
 10 12  1  0  0  0
 12 13  2  0  0  0
 13 14  1  0  0  0
 14 15  2  0  0  0
 15 16  1  0  0  0
 15 17  1  0  0  0
 17 18  2  0  0  0
  7  2  1  0  0  0
 38 35  1  0  0  0
 18 12  1  0  0  0
 28 19  1  0  0  0
 18  7  1  0  0  0
 28 23  1  0  0  0
 32 33  1  0  0  0
M  END
> <minimizedAffinity>
-8.75480

> <CNNscore>
0.3414898515

> <CNNaffinity>
6.3670463562

> <CNN_VS>
2.1742815971

> <CNNaffinity_variance>
0.1229429245

$$$$



 38 43  0  0  0  0  0  0  0  0999 V2000
  -10.4925   -1.6410  -23.2589 C   0  0  0  0  0  0  0  0  0  0  0  0
   -9.5563   -0.5028  -23.5383 C   0  0  0  0  0  0  0  0  0  0  0  0
   -8.1273   -0.9541  -23.6053 C   0  0  0  0  0  0  0  0  0  0  0  0
   -7.2745    0.2473  -23.8870 N   0  0  0  0  0  0  0  0  0  0  0  0
   -8.1764    1.4411  -23.9940 C   0  0  0  0  0  0  0  0  0  0  0  0
   -7.7440    2.8510  -24.2683 O   0  0  0  0  0  0  0  0  0  0  0  0
   -9.5866    0.9775  -23.7785 C   0  0  0  0  0  0  0  0  0  0  0  0
   -9.4608    2.4504  -24.0329 C   0  0  0  0  0  0  0  0  0  0  0  0
  -10.6861    3.3153  -24.0539 N   0  0  0  0  0  0  0  0  0  0  0  0
  -12.0373    2.7073  -23.8206 C   0  0  0  0  0  0  0  0  0  0  0  0
  -13.2627    3.5722  -23.8416 O   0  0  0  0  0  0  0  0  0  0  0  0
  -12.1633    1.2344  -23.5662 C   0  0  0  0  0  0  0  0  0  0  0  0
  -13.5145    0.6264  -23.3328 C   0  0  0  0  0  0  0  0  0  0  0  0
  -13.6403   -0.8465  -23.0784 C   0  0  0  0  0  0  0  0  0  0  0  0
  -12.4150   -1.7114  -23.0574 C   0  0  0  0  0  0  0  0  0  0  0  0
  -12.5409   -3.1843  -22.8030 F   0  0  0  0  0  0  0  0  0  0  0  0
  -11.0637   -1.1034  -23.2908 C   0  0  0  0  0  0  0  0  0  0  0  0
  -10.9379    0.3695  -23.5451 C   0  0  0  0  0  0  0  0  0  0  0  0
   -5.7819    0.2538  -24.0355 C   0  0  0  0  0  0  0  0  0  0  0  0
   -5.1566   -0.1334  -25.3427 C   0  0  0  0  0  0  0  0  0  0  0  0
   -3.6640   -0.1269  -25.4912 N   0  0  0  0  0  0  0  0  0  0  0  0
   -2.7967    0.2668  -24.3324 C   0  0  0  0  0  0  0  0  0  0  0  0
   -3.4221    0.6541  -23.0251 C   0  0  0  0  0  0  0  0  0  0  0  0
   -2.5548    1.0478  -21.8663 C   0  0  0  0  0  0  0  0  0  0  0  0
   -3.1802    1.4350  -20.5590 C   0  0  0  0  0  0  0  0  0  0  0  0
   -4.6728    1.4285  -20.4106 C   0  0  0  0  0  0  0  0  0  0  0  0
   -5.5400    1.0348  -21.5694 C   0  0  0  0  0  0  0  0  0  0  0  0
   -4.9147    0.6476  -22.8766 C   0  0  0  0  0  0  0  0  0  0  0  0
  -10.5602    4.7883  -24.3084 C   0  0  0  0  0  0  0  0  0  0  0  0
   -9.2369    5.4705  -24.1257 C   0  0  0  0  0  0  0  0  0  0  0  0
   -8.5713    6.1405  -25.2910 O   0  0  0  0  0  0  0  0  0  0  0  0
   -8.5793    5.4827  -22.7776 N   0  0  0  0  0  0  0  0  0  0  0  0
   -9.0161    5.0429  -22.0128 H   0  0  0  0  0  0  0  0  0  0  0  0
   -7.2559    6.1649  -22.5949 C   0  0  0  0  0  0  0  0  0  0  0  0
   -6.0015    5.3504  -22.4816 C   0  0  0  0  0  0  0  0  0  0  0  0
   -6.5218    4.1772  -21.7054 F   0  0  0  0  0  0  0  0  0  0  0  0
   -4.5663    4.9433  -22.6380 C   0  0  0  0  0  0  0  0  0  0  0  0
   -5.0453    6.2408  -23.2186 C   0  0  0  0  0  0  0  0  0  0  0  0
  2  1  1  0  0  0
  2  3  1  0  0  0
  3  4  1  0  0  0
  4 19  1  0  0  0
 19 20  2  0  0  0
 20 21  1  0  0  0
 21 22  2  0  0  0
 22 23  1  0  0  0
 23 24  2  0  0  0
 24 25  1  0  0  0
 25 26  2  0  0  0
 26 27  1  0  0  0
 27 28  2  0  0  0
  4  5  1  0  0  0
  5  6  2  0  0  0
  5  7  1  0  0  0
  7  8  1  0  0  0
  8  9  1  0  0  0
  9 29  1  0  0  0
 29 30  1  0  0  0
 30 31  2  0  0  0
 30 32  1  0  0  0
 32 34  1  0  0  0
 34 35  1  0  0  0
 35 36  1  0  0  0
 35 37  1  0  0  0
 37 38  1  0  0  0
  9 10  1  0  0  0
 10 11  2  0  0  0
 10 12  1  0  0  0
 12 13  2  0  0  0
 13 14  1  0  0  0
 14 15  2  0  0  0
 15 16  1  0  0  0
 15 17  1  0  0  0
 17 18  2  0  0  0
  7  2  1  0  0  0
 38 35  1  0  0  0
 18 12  1  0  0  0
 28 19  1  0  0  0
 18  7  1  0  0  0
 28 23  1  0  0  0
 32 33  1  0  0  0
M  END
> <minimizedAffinity>
-7.42889

> <CNNscore>
0.2727553844

> <CNNaffinity>
6.2296018600

> <CNN_VS>
1.6991574764

> <CNNaffinity_variance>
0.1414160430

$$$$



 38 43  0  0  0  0  0  0  0  0999 V2000
   -7.6006   -3.2788  -24.7223 C   0  0  0  0  0  0  0  0  0  0  0  0
   -7.7084   -2.0548  -23.8619 C   0  0  0  0  0  0  0  0  0  0  0  0
   -8.4328   -0.9408  -24.5579 C   0  0  0  0  0  0  0  0  0  0  0  0
   -8.4889    0.2309  -23.6230 N   0  0  0  0  0  0  0  0  0  0  0  0
   -7.7993   -0.1590  -22.3492 C   0  0  0  0  0  0  0  0  0  0  0  0
   -7.6230    0.7110  -21.1401 O   0  0  0  0  0  0  0  0  0  0  0  0
   -7.3169   -1.5716  -22.4969 C   0  0  0  0  0  0  0  0  0  0  0  0
   -6.9939   -0.9523  -21.1695 C   0  0  0  0  0  0  0  0  0  0  0  0
   -6.2505   -1.7429  -20.1340 N   0  0  0  0  0  0  0  0  0  0  0  0
   -5.8302   -3.1529  -20.4258 C   0  0  0  0  0  0  0  0  0  0  0  0
   -5.0868   -3.9435  -19.3903 O   0  0  0  0  0  0  0  0  0  0  0  0
   -6.1532   -3.7723  -21.7533 C   0  0  0  0  0  0  0  0  0  0  0  0
   -5.7329   -5.1823  -22.0451 C   0  0  0  0  0  0  0  0  0  0  0  0
   -6.0560   -5.8017  -23.3725 C   0  0  0  0  0  0  0  0  0  0  0  0
   -6.7993   -5.0111  -24.4080 C   0  0  0  0  0  0  0  0  0  0  0  0
   -7.1224   -5.6305  -25.7354 F   0  0  0  0  0  0  0  0  0  0  0  0
   -7.2196   -3.6011  -24.1162 C   0  0  0  0  0  0  0  0  0  0  0  0
   -6.8966   -2.9817  -22.7888 C   0  0  0  0  0  0  0  0  0  0  0  0
   -9.1233    1.5592  -23.9112 C   0  0  0  0  0  0  0  0  0  0  0  0
   -8.2687    2.7319  -24.2906 C   0  0  0  0  0  0  0  0  0  0  0  0
   -8.9031    4.0603  -24.5788 N   0  0  0  0  0  0  0  0  0  0  0  0
  -10.3922    4.2158  -24.4876 C   0  0  0  0  0  0  0  0  0  0  0  0
  -11.2469    3.0429  -24.1082 C   0  0  0  0  0  0  0  0  0  0  0  0
  -12.7361    3.1984  -24.0170 C   0  0  0  0  0  0  0  0  0  0  0  0
  -13.5907    2.0256  -23.6376 C   0  0  0  0  0  0  0  0  0  0  0  0
  -12.9563    0.6973  -23.3494 C   0  0  0  0  0  0  0  0  0  0  0  0
  -11.4672    0.5418  -23.4406 C   0  0  0  0  0  0  0  0  0  0  0  0
  -10.6125    1.7146  -23.8200 C   0  0  0  0  0  0  0  0  0  0  0  0
   -5.9275   -1.1235  -18.8065 C   0  0  0  0  0  0  0  0  0  0  0  0
   -5.0485    0.0901  -18.7392 C   0  0  0  0  0  0  0  0  0  0  0  0
   -5.0729    0.9674  -17.5227 O   0  0  0  0  0  0  0  0  0  0  0  0
   -4.1451    0.4265  -19.8884 N   0  0  0  0  0  0  0  0  0  0  0  0
   -4.1291   -0.1492  -20.6869 H   0  0  0  0  0  0  0  0  0  0  0  0
   -3.2661    1.6402  -19.8212 C   0  0  0  0  0  0  0  0  0  0  0  0
   -3.2621    2.6269  -20.9509 C   0  0  0  0  0  0  0  0  0  0  0  0
   -1.9026    3.2321  -20.7634 F   0  0  0  0  0  0  0  0  0  0  0  0
   -3.7304    3.4034  -22.1458 C   0  0  0  0  0  0  0  0  0  0  0  0
   -4.6204    2.3643  -21.5308 C   0  0  0  0  0  0  0  0  0  0  0  0
  2  1  1  0  0  0
  2  3  1  0  0  0
  3  4  1  0  0  0
  4 19  1  0  0  0
 19 20  2  0  0  0
 20 21  1  0  0  0
 21 22  2  0  0  0
 22 23  1  0  0  0
 23 24  2  0  0  0
 24 25  1  0  0  0
 25 26  2  0  0  0
 26 27  1  0  0  0
 27 28  2  0  0  0
  4  5  1  0  0  0
  5  6  2  0  0  0
  5  7  1  0  0  0
  7  8  1  0  0  0
  8  9  1  0  0  0
  9 29  1  0  0  0
 29 30  1  0  0  0
 30 31  2  0  0  0
 30 32  1  0  0  0
 32 34  1  0  0  0
 34 35  1  0  0  0
 35 36  1  0  0  0
 35 37  1  0  0  0
 37 38  1  0  0  0
  9 10  1  0  0  0
 10 11  2  0  0  0
 10 12  1  0  0  0
 12 13  2  0  0  0
 13 14  1  0  0  0
 14 15  2  0  0  0
 15 16  1  0  0  0
 15 17  1  0  0  0
 17 18  2  0  0  0
  7  2  1  0  0  0
 38 35  1  0  0  0
 18 12  1  0  0  0
 28 19  1  0  0  0
 18  7  1  0  0  0
 28 23  1  0  0  0
 32 33  1  0  0  0
M  END
> <minimizedAffinity>
-9.19682

> <CNNscore>
0.2148927599

> <CNNaffinity>
6.2924165726

> <CNN_VS>
1.3521947861

> <CNNaffinity_variance>
0.1075977460

$$$$



 38 43  0  0  0  0  0  0  0  0999 V2000
   -9.4612   -3.8052  -24.4406 C   0  0  0  0  0  0  0  0  0  0  0  0
   -9.4392   -2.4877  -23.7238 C   0  0  0  0  0  0  0  0  0  0  0  0
  -10.5482   -1.5840  -24.1749 C   0  0  0  0  0  0  0  0  0  0  0  0
  -10.4422   -0.3006  -23.4057 N   0  0  0  0  0  0  0  0  0  0  0  0
   -9.2676   -0.4112  -22.4792 C   0  0  0  0  0  0  0  0  0  0  0  0
   -8.7959    0.6446  -21.5238 O   0  0  0  0  0  0  0  0  0  0  0  0
   -8.6478   -1.7629  -22.6758 C   0  0  0  0  0  0  0  0  0  0  0  0
   -7.9557   -0.9181  -21.6475 C   0  0  0  0  0  0  0  0  0  0  0  0
   -6.7552   -1.4513  -20.9233 N   0  0  0  0  0  0  0  0  0  0  0  0
   -6.2468   -2.8294  -21.2274 C   0  0  0  0  0  0  0  0  0  0  0  0
   -5.0463   -3.3626  -20.5031 O   0  0  0  0  0  0  0  0  0  0  0  0
   -6.9389   -3.6743  -22.2557 C   0  0  0  0  0  0  0  0  0  0  0  0
   -6.4304   -5.0523  -22.5597 C   0  0  0  0  0  0  0  0  0  0  0  0
   -7.1225   -5.8971  -23.5879 C   0  0  0  0  0  0  0  0  0  0  0  0
   -8.3230   -5.3638  -24.3121 C   0  0  0  0  0  0  0  0  0  0  0  0
   -9.0150   -6.2087  -25.3404 F   0  0  0  0  0  0  0  0  0  0  0  0
   -8.8314   -3.9858  -24.0081 C   0  0  0  0  0  0  0  0  0  0  0  0
   -8.1393   -3.1410  -22.9799 C   0  0  0  0  0  0  0  0  0  0  0  0
  -11.3510    0.8851  -23.5394 C   0  0  0  0  0  0  0  0  0  0  0  0
  -12.7722    0.7978  -23.0677 C   0  0  0  0  0  0  0  0  0  0  0  0
  -13.6810    1.9835  -23.2014 N   0  0  0  0  0  0  0  0  0  0  0  0
  -13.1687    3.2567  -23.8069 C   0  0  0  0  0  0  0  0  0  0  0  0
  -11.7475    3.3440  -24.2787 C   0  0  0  0  0  0  0  0  0  0  0  0
  -11.2351    4.6172  -24.8842 C   0  0  0  0  0  0  0  0  0  0  0  0
   -9.8139    4.7045  -25.3559 C   0  0  0  0  0  0  0  0  0  0  0  0
   -8.9051    3.5187  -25.2221 C   0  0  0  0  0  0  0  0  0  0  0  0
   -9.4175    2.2456  -24.6166 C   0  0  0  0  0  0  0  0  0  0  0  0
  -10.8386    2.1582  -24.1449 C   0  0  0  0  0  0  0  0  0  0  0  0
   -6.0632   -0.6065  -19.8950 C   0  0  0  0  0  0  0  0  0  0  0  0
   -4.7772    0.0864  -20.2357 C   0  0  0  0  0  0  0  0  0  0  0  0
   -4.0607   -0.2466  -21.5108 O   0  0  0  0  0  0  0  0  0  0  0  0
   -4.2077    1.1123  -19.3014 N   0  0  0  0  0  0  0  0  0  0  0  0
   -4.6779    1.3309  -18.4645 H   0  0  0  0  0  0  0  0  0  0  0  0
   -2.9216    1.8053  -19.6421 C   0  0  0  0  0  0  0  0  0  0  0  0
   -2.9077    2.8977  -20.6698 C   0  0  0  0  0  0  0  0  0  0  0  0
   -4.3476    2.8786  -21.0898 F   0  0  0  0  0  0  0  0  0  0  0  0
   -2.3938    3.9968  -21.5518 C   0  0  0  0  0  0  0  0  0  0  0  0
   -1.4630    3.2963  -20.6068 C   0  0  0  0  0  0  0  0  0  0  0  0
  2  1  1  0  0  0
  2  3  1  0  0  0
  3  4  1  0  0  0
  4 19  1  0  0  0
 19 20  2  0  0  0
 20 21  1  0  0  0
 21 22  2  0  0  0
 22 23  1  0  0  0
 23 24  2  0  0  0
 24 25  1  0  0  0
 25 26  2  0  0  0
 26 27  1  0  0  0
 27 28  2  0  0  0
  4  5  1  0  0  0
  5  6  2  0  0  0
  5  7  1  0  0  0
  7  8  1  0  0  0
  8  9  1  0  0  0
  9 29  1  0  0  0
 29 30  1  0  0  0
 30 31  2  0  0  0
 30 32  1  0  0  0
 32 34  1  0  0  0
 34 35  1  0  0  0
 35 36  1  0  0  0
 35 37  1  0  0  0
 37 38  1  0  0  0
  9 10  1  0  0  0
 10 11  2  0  0  0
 10 12  1  0  0  0
 12 13  2  0  0  0
 13 14  1  0  0  0
 14 15  2  0  0  0
 15 16  1  0  0  0
 15 17  1  0  0  0
 17 18  2  0  0  0
  7  2  1  0  0  0
 38 35  1  0  0  0
 18 12  1  0  0  0
 28 19  1  0  0  0
 18  7  1  0  0  0
 28 23  1  0  0  0
 32 33  1  0  0  0
M  END
> <minimizedAffinity>
-8.88780

> <CNNscore>
0.2147434354

> <CNNaffinity>
6.2255144119

> <CNN_VS>
1.3368883133

> <CNNaffinity_variance>
0.0442903675

$$$$
