


 19 21  0  0  0  0  0  0  0  0999 V2000
   10.2633   -1.9885   23.3626 C   0  0  0  0  0  0  0  0  0  0  0  0
   10.5795   -0.9516   22.3260 C   0  0  0  0  0  0  0  0  0  0  0  0
   11.8938   -0.2297   22.3638 N   0  0  0  0  0  0  0  0  0  0  0  0
   12.8919   -0.5448   23.4382 C   0  0  0  0  0  0  0  0  0  0  0  0
   12.5757   -1.5818   24.4750 C   0  0  0  0  0  0  0  0  0  0  0  0
   13.5738   -1.8968   25.5494 C   0  0  0  0  0  0  0  0  0  0  0  0
   13.2576   -2.9338   26.5861 C   0  0  0  0  0  0  0  0  0  0  0  0
   11.9432   -3.6556   26.5483 C   0  0  0  0  0  0  0  0  0  0  0  0
   10.9451   -3.3406   25.4738 C   0  0  0  0  0  0  0  0  0  0  0  0
   11.2614   -2.3036   24.4372 C   0  0  0  0  0  0  0  0  0  0  0  0
    8.9489   -2.7104   23.3249 C   0  0  0  0  0  0  0  0  0  0  0  0
    7.6746   -4.0168   25.1741 O   0  0  0  0  0  0  0  0  0  0  0  0
    8.0615   -2.7164   24.5342 C   0  0  0  0  0  0  0  0  0  0  0  0
    7.5610   -1.4221   25.1036 N   0  0  0  0  0  0  0  0  0  0  0  0
    7.9479   -0.1218   24.4638 C   0  0  0  0  0  0  0  0  0  0  0  0
    7.4474    1.1725   25.0333 C   0  0  0  0  0  0  0  0  0  0  0  0
    6.5600    1.1665   26.2426 C   0  0  0  0  0  0  0  0  0  0  0  0
    6.1731   -0.1339   26.8825 C   0  0  0  0  0  0  0  0  0  0  0  0
    6.6736   -1.4282   26.3130 C   0  0  0  0  0  0  0  0  0  0  0  0
 12 13  2  0  0  0
 13 11  1  0  0  0
 11  1  1  0  0  0
  1  2  2  0  0  0
  2  3  1  0  0  0
  3  4  2  0  0  0
  4  5  1  0  0  0
  5  6  2  0  0  0
  6  7  1  0  0  0
  7  8  2  0  0  0
  8  9  1  0  0  0
  9 10  2  0  0  0
 13 14  1  0  0  0
 14 15  1  0  0  0
 15 16  1  0  0  0
 16 17  1  0  0  0
 17 18  1  0  0  0
 18 19  1  0  0  0
 10  1  1  0  0  0
 19 14  1  0  0  0
 10  5  1  0  0  0
M  END
> <minimizedAffinity>
-6.23945

> <CNNscore>
0.7916696072

> <CNNaffinity>
5.2148942947

> <CNN_VS>
4.1284732819

> <CNNaffinity_variance>
0.1061859876

$$$$



 19 21  0  0  0  0  0  0  0  0999 V2000
   10.2649   -1.9718   23.3262 C   0  0  0  0  0  0  0  0  0  0  0  0
   10.5633   -0.8863   22.3350 C   0  0  0  0  0  0  0  0  0  0  0  0
   11.8411   -0.1074   22.4377 N   0  0  0  0  0  0  0  0  0  0  0  0
   12.8206   -0.4141   23.5316 C   0  0  0  0  0  0  0  0  0  0  0  0
   12.5222   -1.4997   24.5228 C   0  0  0  0  0  0  0  0  0  0  0  0
   13.5016   -1.8064   25.6167 C   0  0  0  0  0  0  0  0  0  0  0  0
   13.2032   -2.8920   26.6079 C   0  0  0  0  0  0  0  0  0  0  0  0
   11.9254   -3.6708   26.5052 C   0  0  0  0  0  0  0  0  0  0  0  0
   10.9459   -3.3641   25.4114 C   0  0  0  0  0  0  0  0  0  0  0  0
   11.2443   -2.2786   24.4202 C   0  0  0  0  0  0  0  0  0  0  0  0
    8.9870   -2.7506   23.2236 C   0  0  0  0  0  0  0  0  0  0  0  0
    7.1208   -1.3509   22.0799 O   0  0  0  0  0  0  0  0  0  0  0  0
    7.6679   -2.0402   23.2947 C   0  0  0  0  0  0  0  0  0  0  0  0
    6.8959   -2.0189   24.5806 N   0  0  0  0  0  0  0  0  0  0  0  0
    7.4429   -2.7082   25.7953 C   0  0  0  0  0  0  0  0  0  0  0  0
    6.6709   -2.6869   27.0812 C   0  0  0  0  0  0  0  0  0  0  0  0
    5.3518   -1.9765   27.1523 C   0  0  0  0  0  0  0  0  0  0  0  0
    4.8046   -1.2872   25.9376 C   0  0  0  0  0  0  0  0  0  0  0  0
    5.5767   -1.3084   24.6517 C   0  0  0  0  0  0  0  0  0  0  0  0
 12 13  2  0  0  0
 13 11  1  0  0  0
 11  1  1  0  0  0
  1  2  2  0  0  0
  2  3  1  0  0  0
  3  4  2  0  0  0
  4  5  1  0  0  0
  5  6  2  0  0  0
  6  7  1  0  0  0
  7  8  2  0  0  0
  8  9  1  0  0  0
  9 10  2  0  0  0
 13 14  1  0  0  0
 14 15  1  0  0  0
 15 16  1  0  0  0
 16 17  1  0  0  0
 17 18  1  0  0  0
 18 19  1  0  0  0
 10  1  1  0  0  0
 19 14  1  0  0  0
 10  5  1  0  0  0
M  END
> <minimizedAffinity>
-6.12178

> <CNNscore>
0.7877548933

> <CNNaffinity>
5.3117203712

> <CNN_VS>
4.1843338013

> <CNNaffinity_variance>
0.1536786854

$$$$



 19 21  0  0  0  0  0  0  0  0999 V2000
   11.5916   -2.0766   23.8856 C   0  0  0  0  0  0  0  0  0  0  0  0
   13.0760   -1.8741   23.9599 C   0  0  0  0  0  0  0  0  0  0  0  0
   13.8312   -2.3029   25.1829 N   0  0  0  0  0  0  0  0  0  0  0  0
   13.1020   -2.9343   26.3316 C   0  0  0  0  0  0  0  0  0  0  0  0
   11.6175   -3.1368   26.2574 C   0  0  0  0  0  0  0  0  0  0  0  0
   10.8883   -3.7681   27.4061 C   0  0  0  0  0  0  0  0  0  0  0  0
    9.4039   -3.9706   27.3318 C   0  0  0  0  0  0  0  0  0  0  0  0
    8.6488   -3.5418   26.1088 C   0  0  0  0  0  0  0  0  0  0  0  0
    9.3780   -2.9104   24.9600 C   0  0  0  0  0  0  0  0  0  0  0  0
   10.8623   -2.7079   25.0343 C   0  0  0  0  0  0  0  0  0  0  0  0
   10.8364   -1.6477   22.6625 C   0  0  0  0  0  0  0  0  0  0  0  0
    8.3610   -0.8721   22.8061 O   0  0  0  0  0  0  0  0  0  0  0  0
    9.8240   -0.5448   22.7546 C   0  0  0  0  0  0  0  0  0  0  0  0
   10.2744    0.8854   22.7950 N   0  0  0  0  0  0  0  0  0  0  0  0
   11.7373    1.2127   22.7435 C   0  0  0  0  0  0  0  0  0  0  0  0
   12.1878    2.6429   22.7840 C   0  0  0  0  0  0  0  0  0  0  0  0
   11.1753    3.7458   22.8760 C   0  0  0  0  0  0  0  0  0  0  0  0
    9.7123    3.4185   22.9276 C   0  0  0  0  0  0  0  0  0  0  0  0
    9.2619    1.9883   22.8871 C   0  0  0  0  0  0  0  0  0  0  0  0
 12 13  2  0  0  0
 13 11  1  0  0  0
 11  1  1  0  0  0
  1  2  2  0  0  0
  2  3  1  0  0  0
  3  4  2  0  0  0
  4  5  1  0  0  0
  5  6  2  0  0  0
  6  7  1  0  0  0
  7  8  2  0  0  0
  8  9  1  0  0  0
  9 10  2  0  0  0
 13 14  1  0  0  0
 14 15  1  0  0  0
 15 16  1  0  0  0
 16 17  1  0  0  0
 17 18  1  0  0  0
 18 19  1  0  0  0
 10  1  1  0  0  0
 19 14  1  0  0  0
 10  5  1  0  0  0
M  END
> <minimizedAffinity>
-6.38216

> <CNNscore>
0.7657241821

> <CNNaffinity>
5.3329076767

> <CNN_VS>
4.0835361481

> <CNNaffinity_variance>
0.1941724718

$$$$



 19 21  0  0  0  0  0  0  0  0999 V2000
   10.2690   -1.9657   23.3064 C   0  0  0  0  0  0  0  0  0  0  0  0
   10.5686   -0.8765   22.3196 C   0  0  0  0  0  0  0  0  0  0  0  0
   11.8439   -0.0945   22.4298 N   0  0  0  0  0  0  0  0  0  0  0  0
   12.8195   -0.4017   23.5269 C   0  0  0  0  0  0  0  0  0  0  0  0
   12.5199   -1.4909   24.5139 C   0  0  0  0  0  0  0  0  0  0  0  0
   13.4956   -1.7981   25.6110 C   0  0  0  0  0  0  0  0  0  0  0  0
   13.1960   -2.8872   26.5978 C   0  0  0  0  0  0  0  0  0  0  0  0
   11.9207   -3.6692   26.4875 C   0  0  0  0  0  0  0  0  0  0  0  0
   10.9450   -3.3621   25.3904 C   0  0  0  0  0  0  0  0  0  0  0  0
   11.2447   -2.2729   24.4036 C   0  0  0  0  0  0  0  0  0  0  0  0
    8.9937   -2.7477   23.1961 C   0  0  0  0  0  0  0  0  0  0  0  0
    7.5938   -0.9379   24.4269 O   0  0  0  0  0  0  0  0  0  0  0  0
    7.8072   -2.3692   24.0321 C   0  0  0  0  0  0  0  0  0  0  0  0
    6.8340   -3.4220   24.4732 N   0  0  0  0  0  0  0  0  0  0  0  0
    7.0474   -4.8533   24.0784 C   0  0  0  0  0  0  0  0  0  0  0  0
    6.0743   -5.9061   24.5195 C   0  0  0  0  0  0  0  0  0  0  0  0
    4.8878   -5.5276   25.3555 C   0  0  0  0  0  0  0  0  0  0  0  0
    4.6743   -4.0963   25.7504 C   0  0  0  0  0  0  0  0  0  0  0  0
    5.6475   -3.0435   25.3092 C   0  0  0  0  0  0  0  0  0  0  0  0
 12 13  2  0  0  0
 13 11  1  0  0  0
 11  1  1  0  0  0
  1  2  2  0  0  0
  2  3  1  0  0  0
  3  4  2  0  0  0
  4  5  1  0  0  0
  5  6  2  0  0  0
  6  7  1  0  0  0
  7  8  2  0  0  0
  8  9  1  0  0  0
  9 10  2  0  0  0
 13 14  1  0  0  0
 14 15  1  0  0  0
 15 16  1  0  0  0
 16 17  1  0  0  0
 17 18  1  0  0  0
 18 19  1  0  0  0
 10  1  1  0  0  0
 19 14  1  0  0  0
 10  5  1  0  0  0
M  END
> <minimizedAffinity>
-6.34052

> <CNNscore>
0.7063162923

> <CNNaffinity>
5.2258973122

> <CNN_VS>
3.6911363602

> <CNNaffinity_variance>
0.1389060467

$$$$



 19 21  0  0  0  0  0  0  0  0999 V2000
    9.5766   -3.1424   24.3898 C   0  0  0  0  0  0  0  0  0  0  0  0
    8.9823   -2.5531   23.1451 C   0  0  0  0  0  0  0  0  0  0  0  0
    9.7658   -1.5622   22.3363 N   0  0  0  0  0  0  0  0  0  0  0  0
   11.1438   -1.1607   22.7721 C   0  0  0  0  0  0  0  0  0  0  0  0
   11.7382   -1.7500   24.0169 C   0  0  0  0  0  0  0  0  0  0  0  0
   13.1161   -1.3485   24.4528 C   0  0  0  0  0  0  0  0  0  0  0  0
   13.7105   -1.9378   25.6975 C   0  0  0  0  0  0  0  0  0  0  0  0
   12.9269   -2.9287   26.5064 C   0  0  0  0  0  0  0  0  0  0  0  0
   11.5490   -3.3302   26.0705 C   0  0  0  0  0  0  0  0  0  0  0  0
   10.9546   -2.7409   24.8258 C   0  0  0  0  0  0  0  0  0  0  0  0
    8.7931   -4.1333   25.1987 C   0  0  0  0  0  0  0  0  0  0  0  0
    6.5487   -3.2763   26.1880 O   0  0  0  0  0  0  0  0  0  0  0  0
    7.2936   -4.0990   25.1789 C   0  0  0  0  0  0  0  0  0  0  0  0
    6.5389   -4.8875   24.1499 N   0  0  0  0  0  0  0  0  0  0  0  0
    7.2837   -5.7102   23.1408 C   0  0  0  0  0  0  0  0  0  0  0  0
    6.5290   -6.4987   22.1118 C   0  0  0  0  0  0  0  0  0  0  0  0
    5.0296   -6.4645   22.0920 C   0  0  0  0  0  0  0  0  0  0  0  0
    4.2847   -5.6418   23.1012 C   0  0  0  0  0  0  0  0  0  0  0  0
    5.0394   -4.8533   24.1301 C   0  0  0  0  0  0  0  0  0  0  0  0
 12 13  2  0  0  0
 13 11  1  0  0  0
 11  1  1  0  0  0
  1  2  2  0  0  0
  2  3  1  0  0  0
  3  4  2  0  0  0
  4  5  1  0  0  0
  5  6  2  0  0  0
  6  7  1  0  0  0
  7  8  2  0  0  0
  8  9  1  0  0  0
  9 10  2  0  0  0
 13 14  1  0  0  0
 14 15  1  0  0  0
 15 16  1  0  0  0
 16 17  1  0  0  0
 17 18  1  0  0  0
 18 19  1  0  0  0
 10  1  1  0  0  0
 19 14  1  0  0  0
 10  5  1  0  0  0
M  END
> <minimizedAffinity>
-6.50733

> <CNNscore>
0.7051124573

> <CNNaffinity>
5.2679672241

> <CNN_VS>
3.7145092487

> <CNNaffinity_variance>
0.0698505417

$$$$



 19 21  0  0  0  0  0  0  0  0999 V2000
   10.4834   -1.6976   23.0470 C   0  0  0  0  0  0  0  0  0  0  0  0
   11.4747   -0.7098   22.5070 C   0  0  0  0  0  0  0  0  0  0  0  0
   12.7851   -0.5032   23.2071 N   0  0  0  0  0  0  0  0  0  0  0  0
   13.1042   -1.2845   24.4472 C   0  0  0  0  0  0  0  0  0  0  0  0
   12.1130   -2.2724   24.9872 C   0  0  0  0  0  0  0  0  0  0  0  0
   12.4321   -3.0537   26.2272 C   0  0  0  0  0  0  0  0  0  0  0  0
   11.4409   -4.0415   26.7671 C   0  0  0  0  0  0  0  0  0  0  0  0
   10.1304   -4.2480   26.0670 C   0  0  0  0  0  0  0  0  0  0  0  0
    9.8113   -3.4668   24.8270 C   0  0  0  0  0  0  0  0  0  0  0  0
   10.8025   -2.4790   24.2870 C   0  0  0  0  0  0  0  0  0  0  0  0
    9.1730   -1.9042   22.3468 C   0  0  0  0  0  0  0  0  0  0  0  0
    8.0869   -0.3927   20.5342 O   0  0  0  0  0  0  0  0  0  0  0  0
    8.3254   -0.7229   21.9778 C   0  0  0  0  0  0  0  0  0  0  0  0
    7.7164    0.1281   23.0525 N   0  0  0  0  0  0  0  0  0  0  0  0
    7.9549   -0.2021   24.4961 C   0  0  0  0  0  0  0  0  0  0  0  0
    7.3458    0.6490   25.5707 C   0  0  0  0  0  0  0  0  0  0  0  0
    6.4983    1.8302   25.2017 C   0  0  0  0  0  0  0  0  0  0  0  0
    6.2597    2.1605   23.7580 C   0  0  0  0  0  0  0  0  0  0  0  0
    6.8688    1.3094   22.6834 C   0  0  0  0  0  0  0  0  0  0  0  0
 12 13  2  0  0  0
 13 11  1  0  0  0
 11  1  1  0  0  0
  1  2  2  0  0  0
  2  3  1  0  0  0
  3  4  2  0  0  0
  4  5  1  0  0  0
  5  6  2  0  0  0
  6  7  1  0  0  0
  7  8  2  0  0  0
  8  9  1  0  0  0
  9 10  2  0  0  0
 13 14  1  0  0  0
 14 15  1  0  0  0
 15 16  1  0  0  0
 16 17  1  0  0  0
 17 18  1  0  0  0
 18 19  1  0  0  0
 10  1  1  0  0  0
 19 14  1  0  0  0
 10  5  1  0  0  0
M  END
> <minimizedAffinity>
-6.21520

> <CNNscore>
0.6842934489

> <CNNaffinity>
5.1748847961

> <CNN_VS>
3.5411398411

> <CNNaffinity_variance>
0.0535485521

$$$$



 19 21  0  0  0  0  0  0  0  0999 V2000
    9.8220   -2.6033   23.6002 C   0  0  0  0  0  0  0  0  0  0  0  0
    8.5861   -3.3684   23.9703 C   0  0  0  0  0  0  0  0  0  0  0  0
    8.5544   -4.1766   25.2335 N   0  0  0  0  0  0  0  0  0  0  0  0
    9.7588   -4.2198   26.1267 C   0  0  0  0  0  0  0  0  0  0  0  0
   10.9948   -3.4546   25.7566 C   0  0  0  0  0  0  0  0  0  0  0  0
   12.1991   -3.4978   26.6497 C   0  0  0  0  0  0  0  0  0  0  0  0
   13.4350   -2.7327   26.2796 C   0  0  0  0  0  0  0  0  0  0  0  0
   13.4667   -1.9245   25.0163 C   0  0  0  0  0  0  0  0  0  0  0  0
   12.2624   -1.8813   24.1232 C   0  0  0  0  0  0  0  0  0  0  0  0
   11.0264   -2.6464   24.4933 C   0  0  0  0  0  0  0  0  0  0  0  0
    9.8537   -1.7951   22.3369 C   0  0  0  0  0  0  0  0  0  0  0  0
    7.5879   -0.6268   21.8357 O   0  0  0  0  0  0  0  0  0  0  0  0
    9.0338   -0.5439   22.2263 C   0  0  0  0  0  0  0  0  0  0  0  0
    9.6598    0.7901   22.5063 N   0  0  0  0  0  0  0  0  0  0  0  0
   11.1056    0.8730   22.8969 C   0  0  0  0  0  0  0  0  0  0  0  0
   11.7316    2.2071   23.1769 C   0  0  0  0  0  0  0  0  0  0  0  0
   10.9118    3.4583   23.0663 C   0  0  0  0  0  0  0  0  0  0  0  0
    9.4658    3.3755   22.6757 C   0  0  0  0  0  0  0  0  0  0  0  0
    8.8398    2.0414   22.3957 C   0  0  0  0  0  0  0  0  0  0  0  0
 12 13  2  0  0  0
 13 11  1  0  0  0
 11  1  1  0  0  0
  1  2  2  0  0  0
  2  3  1  0  0  0
  3  4  2  0  0  0
  4  5  1  0  0  0
  5  6  2  0  0  0
  6  7  1  0  0  0
  7  8  2  0  0  0
  8  9  1  0  0  0
  9 10  2  0  0  0
 13 14  1  0  0  0
 14 15  1  0  0  0
 15 16  1  0  0  0
 16 17  1  0  0  0
 17 18  1  0  0  0
 18 19  1  0  0  0
 10  1  1  0  0  0
 19 14  1  0  0  0
 10  5  1  0  0  0
M  END
> <minimizedAffinity>
-6.80238

> <CNNscore>
0.6657346487

> <CNNaffinity>
5.1018476486

> <CNN_VS>
3.3964767456

> <CNNaffinity_variance>
0.1620091796

$$$$



 19 21  0  0  0  0  0  0  0  0999 V2000
    9.6434   -2.3884   24.0845 C   0  0  0  0  0  0  0  0  0  0  0  0
    8.5728   -3.4223   24.2710 C   0  0  0  0  0  0  0  0  0  0  0  0
    8.7769   -4.5464   25.2429 N   0  0  0  0  0  0  0  0  0  0  0  0
   10.0517   -4.6367   26.0283 C   0  0  0  0  0  0  0  0  0  0  0  0
   11.1224   -3.6028   25.8418 C   0  0  0  0  0  0  0  0  0  0  0  0
   12.3971   -3.6931   26.6272 C   0  0  0  0  0  0  0  0  0  0  0  0
   13.4677   -2.6592   26.4406 C   0  0  0  0  0  0  0  0  0  0  0  0
   13.2635   -1.5350   25.4688 C   0  0  0  0  0  0  0  0  0  0  0  0
   11.9888   -1.4447   24.6834 C   0  0  0  0  0  0  0  0  0  0  0  0
   10.9182   -2.4786   24.8699 C   0  0  0  0  0  0  0  0  0  0  0  0
    9.4392   -1.2642   23.1126 C   0  0  0  0  0  0  0  0  0  0  0  0
    9.9804    1.2761   23.1760 O   0  0  0  0  0  0  0  0  0  0  0  0
    9.1368    0.1163   23.6154 C   0  0  0  0  0  0  0  0  0  0  0  0
    7.9906    0.3369   24.5576 N   0  0  0  0  0  0  0  0  0  0  0  0
    7.1470   -0.8228   24.9970 C   0  0  0  0  0  0  0  0  0  0  0  0
    6.0009   -0.6022   25.9392 C   0  0  0  0  0  0  0  0  0  0  0  0
    5.6984    0.7783   26.4419 C   0  0  0  0  0  0  0  0  0  0  0  0
    6.5421    1.9382   26.0025 C   0  0  0  0  0  0  0  0  0  0  0  0
    7.6882    1.7175   25.0603 C   0  0  0  0  0  0  0  0  0  0  0  0
 12 13  2  0  0  0
 13 11  1  0  0  0
 11  1  1  0  0  0
  1  2  2  0  0  0
  2  3  1  0  0  0
  3  4  2  0  0  0
  4  5  1  0  0  0
  5  6  2  0  0  0
  6  7  1  0  0  0
  7  8  2  0  0  0
  8  9  1  0  0  0
  9 10  2  0  0  0
 13 14  1  0  0  0
 14 15  1  0  0  0
 15 16  1  0  0  0
 16 17  1  0  0  0
 17 18  1  0  0  0
 18 19  1  0  0  0
 10  1  1  0  0  0
 19 14  1  0  0  0
 10  5  1  0  0  0
M  END
> <minimizedAffinity>
-5.41416

> <CNNscore>
0.6502515078

> <CNNaffinity>
5.1883621216

> <CNN_VS>
3.3737401962

> <CNNaffinity_variance>
0.1655429155

$$$$



 19 21  0  0  0  0  0  0  0  0999 V2000
    9.4941   -1.0266   24.7111 C   0  0  0  0  0  0  0  0  0  0  0  0
    9.5478    0.1878   23.8324 C   0  0  0  0  0  0  0  0  0  0  0  0
   10.8717    0.7888   23.4635 N   0  0  0  0  0  0  0  0  0  0  0  0
   12.1420    0.1753   23.9732 C   0  0  0  0  0  0  0  0  0  0  0  0
   12.0884   -1.0392   24.8520 C   0  0  0  0  0  0  0  0  0  0  0  0
   13.3587   -1.6527   25.3618 C   0  0  0  0  0  0  0  0  0  0  0  0
   13.3051   -2.8672   26.2405 C   0  0  0  0  0  0  0  0  0  0  0  0
   11.9812   -3.4681   26.6094 C   0  0  0  0  0  0  0  0  0  0  0  0
   10.7109   -2.8546   26.0996 C   0  0  0  0  0  0  0  0  0  0  0  0
   10.7645   -1.6402   25.2209 C   0  0  0  0  0  0  0  0  0  0  0  0
    8.1702   -1.6276   25.0800 C   0  0  0  0  0  0  0  0  0  0  0  0
    6.4445   -0.9022   23.2784 O   0  0  0  0  0  0  0  0  0  0  0  0
    7.1838   -1.9845   24.0079 C   0  0  0  0  0  0  0  0  0  0  0  0
    6.9365   -3.4238   23.6653 N   0  0  0  0  0  0  0  0  0  0  0  0
    7.6757   -4.5061   24.3947 C   0  0  0  0  0  0  0  0  0  0  0  0
    7.4284   -5.9454   24.0520 C   0  0  0  0  0  0  0  0  0  0  0  0
    6.4420   -6.3023   22.9800 C   0  0  0  0  0  0  0  0  0  0  0  0
    5.7027   -5.2200   22.2505 C   0  0  0  0  0  0  0  0  0  0  0  0
    5.9499   -3.7807   22.5931 C   0  0  0  0  0  0  0  0  0  0  0  0
 12 13  2  0  0  0
 13 11  1  0  0  0
 11  1  1  0  0  0
  1  2  2  0  0  0
  2  3  1  0  0  0
  3  4  2  0  0  0
  4  5  1  0  0  0
  5  6  2  0  0  0
  6  7  1  0  0  0
  7  8  2  0  0  0
  8  9  1  0  0  0
  9 10  2  0  0  0
 13 14  1  0  0  0
 14 15  1  0  0  0
 15 16  1  0  0  0
 16 17  1  0  0  0
 17 18  1  0  0  0
 18 19  1  0  0  0
 10  1  1  0  0  0
 19 14  1  0  0  0
 10  5  1  0  0  0
M  END
> <minimizedAffinity>
-6.73469

> <CNNscore>
0.6468721032

> <CNNaffinity>
5.1276454926

> <CNN_VS>
3.3169307709

> <CNNaffinity_variance>
0.1472845376

$$$$
