


 42 47  0  0  0  0  0  0  0  0999 V2000
   10.0586    0.3862   22.9983 N   0  0  0  0  0  0  0  0  0  0  0  0
    8.8690   -0.5142   22.8432 C   0  0  0  0  0  0  0  0  0  0  0  0
    8.7932   -1.7968   23.6172 C   0  0  0  0  0  0  0  0  0  0  0  0
    8.5787   -3.1036   24.3216 C   0  0  0  0  0  0  0  0  0  0  0  0
    9.1302   -3.8295   25.1250 O   0  0  0  0  0  0  0  0  0  0  0  0
    7.2621   -3.6630   23.8703 N   0  0  0  0  0  0  0  0  0  0  0  0
    6.6628   -2.7018   22.8869 C   0  0  0  0  0  0  0  0  0  0  0  0
    7.6091   -1.5485   22.7305 C   0  0  0  0  0  0  0  0  0  0  0  0
    9.9070   -2.1790   24.5464 C   0  0  0  0  0  0  0  0  0  0  0  0
    9.8312   -3.4616   25.3205 C   0  0  0  0  0  0  0  0  0  0  0  0
   10.9450   -3.8438   26.2496 C   0  0  0  0  0  0  0  0  0  0  0  0
   10.8692   -5.1264   27.0237 Cl  0  0  0  0  0  0  0  0  0  0  0  0
   12.1346   -2.9434   26.4047 C   0  0  0  0  0  0  0  0  0  0  0  0
   12.2104   -1.6608   25.6306 C   0  0  0  0  0  0  0  0  0  0  0  0
   11.0966   -1.2786   24.7015 C   0  0  0  0  0  0  0  0  0  0  0  0
   11.1724    0.0040   23.9274 C   0  0  0  0  0  0  0  0  0  0  0  0
   12.3620    0.9044   24.0825 O   0  0  0  0  0  0  0  0  0  0  0  0
    6.6520   -4.9564   24.3228 C   0  0  0  0  0  0  0  0  0  0  0  0
    7.1420   -6.2558   23.7558 C   0  0  0  0  0  0  0  0  0  0  0  0
    6.5318   -7.5492   24.2083 N   0  0  0  0  0  0  0  0  0  0  0  0
    5.4317   -7.5432   25.2279 C   0  0  0  0  0  0  0  0  0  0  0  0
    4.9417   -6.2438   25.7950 C   0  0  0  0  0  0  0  0  0  0  0  0
    3.8415   -6.2379   26.8147 C   0  0  0  0  0  0  0  0  0  0  0  0
    3.3516   -4.9384   27.3817 C   0  0  0  0  0  0  0  0  0  0  0  0
    3.9617   -3.6450   26.9291 C   0  0  0  0  0  0  0  0  0  0  0  0
    5.0619   -3.6510   25.9095 C   0  0  0  0  0  0  0  0  0  0  0  0
    5.5519   -4.9504   25.3424 C   0  0  0  0  0  0  0  0  0  0  0  0
   10.1344    1.6688   22.2242 C   0  0  0  0  0  0  0  0  0  0  0  0
    7.8833    4.7167   23.4043 C   0  0  0  0  0  0  0  0  0  0  0  0
    9.0124    3.7316   23.3359 N   0  0  0  0  0  0  0  0  0  0  0  0
    9.0053    2.6539   22.2926 C   0  0  0  0  0  0  0  0  0  0  0  0
    7.8690    2.5613   21.3176 O   0  0  0  0  0  0  0  0  0  0  0  0
    9.7581    3.7924   23.9757 H   0  0  0  0  0  0  0  0  0  0  0  0
    7.4067   -0.3561   21.8432 C   0  0  0  0  0  0  0  0  0  0  0  0
    7.2549   -0.5403   20.3624 N   0  0  0  0  0  0  0  0  0  0  0  0
    7.8717   -1.1323   19.8742 H   0  0  0  0  0  0  0  0  0  0  0  0
    6.1634    0.1775   19.6253 C   0  0  0  0  0  0  0  0  0  0  0  0
    4.9846    0.7228   20.3756 C   0  0  0  0  0  0  0  0  0  0  0  0
    3.8931    1.4405   19.6385 C   0  0  0  0  0  0  0  0  0  0  0  0
    3.9802    1.6129   18.1510 N   0  0  0  0  0  0  0  0  0  0  0  0
    5.1590    1.0676   17.4006 C   0  0  0  0  0  0  0  0  0  0  0  0
    6.2506    0.3498   18.1378 N   0  0  0  0  0  0  0  0  0  0  0  0
 29 30  1  0  0  0
 30 31  1  0  0  0
 31 32  2  0  0  0
 31 28  1  0  0  0
 28  1  1  0  0  0
  1  2  1  0  0  0
  3  2  1  0  0  0
  3  4  1  0  0  0
  4  5  2  0  0  0
  4  6  1  0  0  0
  6 18  1  0  0  0
 18 19  2  0  0  0
 19 20  1  0  0  0
 20 21  2  0  0  0
 21 22  1  0  0  0
 22 23  2  0  0  0
 23 24  1  0  0  0
 24 25  2  0  0  0
 25 26  1  0  0  0
 26 27  2  0  0  0
  6  7  1  0  0  0
  7  8  1  0  0  0
  8 34  1  0  0  0
 34 35  1  0  0  0
 35 37  1  0  0  0
 37 38  2  0  0  0
 38 39  1  0  0  0
 39 40  2  0  0  0
 40 41  1  0  0  0
 41 42  2  0  0  0
  3  9  1  0  0  0
  9 10  2  0  0  0
 10 11  1  0  0  0
 11 12  1  0  0  0
 11 13  2  0  0  0
 13 14  1  0  0  0
 14 15  2  0  0  0
 15 16  1  0  0  0
 16 17  2  0  0  0
 16  1  1  0  0  0
  8  3  1  0  0  0
 42 37  1  0  0  0
 15  9  1  0  0  0
 27 18  1  0  0  0
 27 22  1  0  0  0
 30 33  1  0  0  0
 35 36  1  0  0  0
M  END
> <minimizedAffinity>
-9.48187

> <CNNscore>
0.4747811854

> <CNNaffinity>
7.1425042152

> <CNN_VS>
3.3911266327

> <CNNaffinity_variance>
0.2464039028

$$$$



 42 47  0  0  0  0  0  0  0  0999 V2000
    6.8673   -3.3543   23.5900 N   0  0  0  0  0  0  0  0  0  0  0  0
    7.0643   -1.9636   23.0635 C   0  0  0  0  0  0  0  0  0  0  0  0
    8.3429   -1.2303   23.3419 C   0  0  0  0  0  0  0  0  0  0  0  0
    9.5611   -0.3775   23.5385 C   0  0  0  0  0  0  0  0  0  0  0  0
   10.6510   -0.4206   24.0737 O   0  0  0  0  0  0  0  0  0  0  0  0
    9.3274    0.9316   22.8444 N   0  0  0  0  0  0  0  0  0  0  0  0
    7.9647    0.8878   22.2188 C   0  0  0  0  0  0  0  0  0  0  0  0
    7.3563   -0.4484   22.5263 C   0  0  0  0  0  0  0  0  0  0  0  0
    9.4245   -1.8877   24.1470 C   0  0  0  0  0  0  0  0  0  0  0  0
   10.7031   -1.1544   24.4254 C   0  0  0  0  0  0  0  0  0  0  0  0
   11.7846   -1.8118   25.2304 C   0  0  0  0  0  0  0  0  0  0  0  0
   13.0632   -1.0785   25.5089 Cl  0  0  0  0  0  0  0  0  0  0  0  0
   11.5876   -3.2024   25.7570 C   0  0  0  0  0  0  0  0  0  0  0  0
   10.3091   -3.9357   25.4785 C   0  0  0  0  0  0  0  0  0  0  0  0
    9.2275   -3.2784   24.6735 C   0  0  0  0  0  0  0  0  0  0  0  0
    7.9489   -4.0117   24.3950 C   0  0  0  0  0  0  0  0  0  0  0  0
    7.7519   -5.4023   24.9216 O   0  0  0  0  0  0  0  0  0  0  0  0
   10.2877    2.0824   22.7861 C   0  0  0  0  0  0  0  0  0  0  0  0
   11.7477    1.8298   22.5524 C   0  0  0  0  0  0  0  0  0  0  0  0
   12.7080    2.9806   22.4941 N   0  0  0  0  0  0  0  0  0  0  0  0
   12.2084    4.3840   22.6695 C   0  0  0  0  0  0  0  0  0  0  0  0
   10.7483    4.6366   22.9032 C   0  0  0  0  0  0  0  0  0  0  0  0
   10.2487    6.0401   23.0786 C   0  0  0  0  0  0  0  0  0  0  0  0
    8.7886    6.2926   23.3122 C   0  0  0  0  0  0  0  0  0  0  0  0
    7.8283    5.1418   23.3705 C   0  0  0  0  0  0  0  0  0  0  0  0
    8.3280    3.7384   23.1951 C   0  0  0  0  0  0  0  0  0  0  0  0
    9.7880    3.4858   22.9615 C   0  0  0  0  0  0  0  0  0  0  0  0
    5.5887   -4.0876   23.3116 C   0  0  0  0  0  0  0  0  0  0  0  0
    4.9227   -7.5492   25.1347 C   0  0  0  0  0  0  0  0  0  0  0  0
    5.0103   -6.0728   24.8846 N   0  0  0  0  0  0  0  0  0  0  0  0
    5.5011   -5.5640   23.5616 C   0  0  0  0  0  0  0  0  0  0  0  0
    5.9043   -6.5316   22.4887 O   0  0  0  0  0  0  0  0  0  0  0  0
    4.7457   -5.4377   25.5888 H   0  0  0  0  0  0  0  0  0  0  0  0
    5.9995   -0.9198   22.0941 C   0  0  0  0  0  0  0  0  0  0  0  0
    5.7433   -1.2478   20.6531 N   0  0  0  0  0  0  0  0  0  0  0  0
    5.9435   -2.1487   20.3102 H   0  0  0  0  0  0  0  0  0  0  0  0
    5.1822   -0.2033   19.7343 C   0  0  0  0  0  0  0  0  0  0  0  0
    4.1711    0.7799   20.2452 C   0  0  0  0  0  0  0  0  0  0  0  0
    3.6100    1.8244   19.3265 C   0  0  0  0  0  0  0  0  0  0  0  0
    4.0599    1.8858   17.8968 N   0  0  0  0  0  0  0  0  0  0  0  0
    5.0710    0.9026   17.3860 C   0  0  0  0  0  0  0  0  0  0  0  0
    5.6321   -0.1420   18.3047 N   0  0  0  0  0  0  0  0  0  0  0  0
 29 30  1  0  0  0
 30 31  1  0  0  0
 31 32  2  0  0  0
 31 28  1  0  0  0
 28  1  1  0  0  0
  1  2  1  0  0  0
  3  2  1  0  0  0
  3  4  1  0  0  0
  4  5  2  0  0  0
  4  6  1  0  0  0
  6 18  1  0  0  0
 18 19  2  0  0  0
 19 20  1  0  0  0
 20 21  2  0  0  0
 21 22  1  0  0  0
 22 23  2  0  0  0
 23 24  1  0  0  0
 24 25  2  0  0  0
 25 26  1  0  0  0
 26 27  2  0  0  0
  6  7  1  0  0  0
  7  8  1  0  0  0
  8 34  1  0  0  0
 34 35  1  0  0  0
 35 37  1  0  0  0
 37 38  2  0  0  0
 38 39  1  0  0  0
 39 40  2  0  0  0
 40 41  1  0  0  0
 41 42  2  0  0  0
  3  9  1  0  0  0
  9 10  2  0  0  0
 10 11  1  0  0  0
 11 12  1  0  0  0
 11 13  2  0  0  0
 13 14  1  0  0  0
 14 15  2  0  0  0
 15 16  1  0  0  0
 16 17  2  0  0  0
 16  1  1  0  0  0
  8  3  1  0  0  0
 42 37  1  0  0  0
 15  9  1  0  0  0
 27 18  1  0  0  0
 27 22  1  0  0  0
 30 33  1  0  0  0
 35 36  1  0  0  0
M  END
> <minimizedAffinity>
-8.83141

> <CNNscore>
0.2728759050

> <CNNaffinity>
6.9288382530

> <CNN_VS>
1.8907129765

> <CNNaffinity_variance>
0.1501432061

$$$$



 42 47  0  0  0  0  0  0  0  0999 V2000
   10.2033    0.8595   23.1288 N   0  0  0  0  0  0  0  0  0  0  0  0
    8.8209    0.3487   23.4081 C   0  0  0  0  0  0  0  0  0  0  0  0
    8.6265   -0.8352   24.3084 C   0  0  0  0  0  0  0  0  0  0  0  0
    8.2779   -2.0028   25.1831 C   0  0  0  0  0  0  0  0  0  0  0  0
    8.8195   -2.8403   25.8771 O   0  0  0  0  0  0  0  0  0  0  0  0
    6.7859   -2.1573   25.1773 N   0  0  0  0  0  0  0  0  0  0  0  0
    6.2123   -1.0852   24.2990 C   0  0  0  0  0  0  0  0  0  0  0  0
    7.3498   -0.2680   23.7620 C   0  0  0  0  0  0  0  0  0  0  0  0
    9.8144   -1.5083   24.9294 C   0  0  0  0  0  0  0  0  0  0  0  0
    9.6200   -2.6922   25.8297 C   0  0  0  0  0  0  0  0  0  0  0  0
   10.8079   -3.3653   26.4507 C   0  0  0  0  0  0  0  0  0  0  0  0
   10.6135   -4.5493   27.3510 Cl  0  0  0  0  0  0  0  0  0  0  0  0
   12.1904   -2.8545   26.1714 C   0  0  0  0  0  0  0  0  0  0  0  0
   12.3848   -1.6706   25.2711 C   0  0  0  0  0  0  0  0  0  0  0  0
   11.1969   -0.9975   24.6501 C   0  0  0  0  0  0  0  0  0  0  0  0
   11.3913    0.1865   23.7498 C   0  0  0  0  0  0  0  0  0  0  0  0
   12.7737    0.6973   23.4705 O   0  0  0  0  0  0  0  0  0  0  0  0
    6.0047   -3.2008   25.9195 C   0  0  0  0  0  0  0  0  0  0  0  0
    5.6299   -4.4833   25.2378 C   0  0  0  0  0  0  0  0  0  0  0  0
    4.8487   -5.5267   25.9800 N   0  0  0  0  0  0  0  0  0  0  0  0
    4.4423   -5.2877   27.4040 C   0  0  0  0  0  0  0  0  0  0  0  0
    4.8171   -4.0052   28.0857 C   0  0  0  0  0  0  0  0  0  0  0  0
    4.4107   -3.7662   29.5098 C   0  0  0  0  0  0  0  0  0  0  0  0
    4.7856   -2.4837   30.1914 C   0  0  0  0  0  0  0  0  0  0  0  0
    5.5668   -1.4402   29.4492 C   0  0  0  0  0  0  0  0  0  0  0  0
    5.9732   -1.6792   28.0252 C   0  0  0  0  0  0  0  0  0  0  0  0
    5.5983   -2.9617   27.3435 C   0  0  0  0  0  0  0  0  0  0  0  0
   10.3978    2.0435   22.2285 C   0  0  0  0  0  0  0  0  0  0  0  0
    9.7279    5.7797   23.3868 C   0  0  0  0  0  0  0  0  0  0  0  0
    9.5093    4.4176   22.7979 N   0  0  0  0  0  0  0  0  0  0  0  0
   10.6163    3.4056   22.8174 C   0  0  0  0  0  0  0  0  0  0  0  0
   11.9420    3.7558   23.4258 O   0  0  0  0  0  0  0  0  0  0  0  0
    8.6393    4.1878   22.3986 H   0  0  0  0  0  0  0  0  0  0  0  0
    7.2314    0.9095   22.8403 C   0  0  0  0  0  0  0  0  0  0  0  0
    5.9333    1.1882   22.1425 N   0  0  0  0  0  0  0  0  0  0  0  0
    5.1774    1.5712   22.6436 H   0  0  0  0  0  0  0  0  0  0  0  0
    5.7868    0.8835   20.6811 C   0  0  0  0  0  0  0  0  0  0  0  0
    4.5886    1.3804   19.9278 C   0  0  0  0  0  0  0  0  0  0  0  0
    4.4421    1.0757   18.4665 C   0  0  0  0  0  0  0  0  0  0  0  0
    5.4938    0.2741   17.7583 N   0  0  0  0  0  0  0  0  0  0  0  0
    6.6920   -0.2228   18.5116 C   0  0  0  0  0  0  0  0  0  0  0  0
    6.8385    0.0819   19.9730 N   0  0  0  0  0  0  0  0  0  0  0  0
 29 30  1  0  0  0
 30 31  1  0  0  0
 31 32  2  0  0  0
 31 28  1  0  0  0
 28  1  1  0  0  0
  1  2  1  0  0  0
  3  2  1  0  0  0
  3  4  1  0  0  0
  4  5  2  0  0  0
  4  6  1  0  0  0
  6 18  1  0  0  0
 18 19  2  0  0  0
 19 20  1  0  0  0
 20 21  2  0  0  0
 21 22  1  0  0  0
 22 23  2  0  0  0
 23 24  1  0  0  0
 24 25  2  0  0  0
 25 26  1  0  0  0
 26 27  2  0  0  0
  6  7  1  0  0  0
  7  8  1  0  0  0
  8 34  1  0  0  0
 34 35  1  0  0  0
 35 37  1  0  0  0
 37 38  2  0  0  0
 38 39  1  0  0  0
 39 40  2  0  0  0
 40 41  1  0  0  0
 41 42  2  0  0  0
  3  9  1  0  0  0
  9 10  2  0  0  0
 10 11  1  0  0  0
 11 12  1  0  0  0
 11 13  2  0  0  0
 13 14  1  0  0  0
 14 15  2  0  0  0
 15 16  1  0  0  0
 16 17  2  0  0  0
 16  1  1  0  0  0
  8  3  1  0  0  0
 42 37  1  0  0  0
 15  9  1  0  0  0
 27 18  1  0  0  0
 27 22  1  0  0  0
 30 33  1  0  0  0
 35 36  1  0  0  0
M  END
> <minimizedAffinity>
-8.70483

> <CNNscore>
0.1977271438

> <CNNaffinity>
6.7726488113

> <CNN_VS>
1.3391364813

> <CNNaffinity_variance>
0.1507627666

$$$$



 42 47  0  0  0  0  0  0  0  0999 V2000
   10.1729    3.5081   22.8470 N   0  0  0  0  0  0  0  0  0  0  0  0
    8.8352    2.9667   23.2561 C   0  0  0  0  0  0  0  0  0  0  0  0
    8.7184    1.5593   23.7616 C   0  0  0  0  0  0  0  0  0  0  0  0
    8.4478    0.1792   24.2833 C   0  0  0  0  0  0  0  0  0  0  0  0
    9.0385   -0.8508   24.5410 O   0  0  0  0  0  0  0  0  0  0  0  0
    6.9786    0.0699   24.5650 N   0  0  0  0  0  0  0  0  0  0  0  0
    6.3411    1.3825   24.2175 C   0  0  0  0  0  0  0  0  0  0  0  0
    7.4164    2.3030   23.7210 C   0  0  0  0  0  0  0  0  0  0  0  0
    9.9394    0.6932   23.8580 C   0  0  0  0  0  0  0  0  0  0  0  0
    9.8226   -0.7141   24.3635 C   0  0  0  0  0  0  0  0  0  0  0  0
   11.0435   -1.5801   24.4599 C   0  0  0  0  0  0  0  0  0  0  0  0
   10.9268   -2.9876   24.9655 Cl  0  0  0  0  0  0  0  0  0  0  0  0
   12.3812   -1.0388   24.0507 C   0  0  0  0  0  0  0  0  0  0  0  0
   12.4980    0.3686   23.5452 C   0  0  0  0  0  0  0  0  0  0  0  0
   11.2771    1.2346   23.4489 C   0  0  0  0  0  0  0  0  0  0  0  0
   11.3939    2.6421   22.9433 C   0  0  0  0  0  0  0  0  0  0  0  0
   12.7316    3.1835   22.5342 O   0  0  0  0  0  0  0  0  0  0  0  0
    6.2711   -1.1396   25.1003 C   0  0  0  0  0  0  0  0  0  0  0  0
    6.0444   -2.3290   24.2149 C   0  0  0  0  0  0  0  0  0  0  0  0
    5.3369   -3.5385   24.7502 N   0  0  0  0  0  0  0  0  0  0  0  0
    4.8561   -3.5586   26.1709 C   0  0  0  0  0  0  0  0  0  0  0  0
    5.0828   -2.3692   27.0563 C   0  0  0  0  0  0  0  0  0  0  0  0
    4.6020   -2.3893   28.4771 C   0  0  0  0  0  0  0  0  0  0  0  0
    4.8288   -1.1999   29.3624 C   0  0  0  0  0  0  0  0  0  0  0  0
    5.5363    0.0096   28.8272 C   0  0  0  0  0  0  0  0  0  0  0  0
    6.0170    0.0297   27.4064 C   0  0  0  0  0  0  0  0  0  0  0  0
    5.7903   -1.1597   26.5210 C   0  0  0  0  0  0  0  0  0  0  0  0
   10.2897    4.9155   22.3414 C   0  0  0  0  0  0  0  0  0  0  0  0
   10.7259    7.6699   25.1651 C   0  0  0  0  0  0  0  0  0  0  0  0
   11.0215    6.5178   24.2511 N   0  0  0  0  0  0  0  0  0  0  0  0
    9.9941    6.0676   23.2553 C   0  0  0  0  0  0  0  0  0  0  0  0
    8.6709    6.7696   23.1735 O   0  0  0  0  0  0  0  0  0  0  0  0
   11.8899    6.0571   24.3049 H   0  0  0  0  0  0  0  0  0  0  0  0
    7.2234    3.7186   23.2641 C   0  0  0  0  0  0  0  0  0  0  0  0
    6.2261    4.0301   22.1880 N   0  0  0  0  0  0  0  0  0  0  0  0
    6.0585    4.9646   21.9276 H   0  0  0  0  0  0  0  0  0  0  0  0
    5.4838    2.9177   21.5084 C   0  0  0  0  0  0  0  0  0  0  0  0
    6.2198    1.9560   20.6233 C   0  0  0  0  0  0  0  0  0  0  0  0
    5.4777    0.8437   19.9438 C   0  0  0  0  0  0  0  0  0  0  0  0
    3.9994    0.6930   20.1493 N   0  0  0  0  0  0  0  0  0  0  0  0
    3.2635    1.6546   21.0345 C   0  0  0  0  0  0  0  0  0  0  0  0
    4.0057    2.7670   21.7141 N   0  0  0  0  0  0  0  0  0  0  0  0
 29 30  1  0  0  0
 30 31  1  0  0  0
 31 32  2  0  0  0
 31 28  1  0  0  0
 28  1  1  0  0  0
  1  2  1  0  0  0
  3  2  1  0  0  0
  3  4  1  0  0  0
  4  5  2  0  0  0
  4  6  1  0  0  0
  6 18  1  0  0  0
 18 19  2  0  0  0
 19 20  1  0  0  0
 20 21  2  0  0  0
 21 22  1  0  0  0
 22 23  2  0  0  0
 23 24  1  0  0  0
 24 25  2  0  0  0
 25 26  1  0  0  0
 26 27  2  0  0  0
  6  7  1  0  0  0
  7  8  1  0  0  0
  8 34  1  0  0  0
 34 35  1  0  0  0
 35 37  1  0  0  0
 37 38  2  0  0  0
 38 39  1  0  0  0
 39 40  2  0  0  0
 40 41  1  0  0  0
 41 42  2  0  0  0
  3  9  1  0  0  0
  9 10  2  0  0  0
 10 11  1  0  0  0
 11 12  1  0  0  0
 11 13  2  0  0  0
 13 14  1  0  0  0
 14 15  2  0  0  0
 15 16  1  0  0  0
 16 17  2  0  0  0
 16  1  1  0  0  0
  8  3  1  0  0  0
 42 37  1  0  0  0
 15  9  1  0  0  0
 27 18  1  0  0  0
 27 22  1  0  0  0
 30 33  1  0  0  0
 35 36  1  0  0  0
M  END
> <minimizedAffinity>
-7.19071

> <CNNscore>
0.1750773937

> <CNNaffinity>
6.5584654808

> <CNN_VS>
1.1482390165

> <CNNaffinity_variance>
0.4165523052

$$$$



 42 47  0  0  0  0  0  0  0  0999 V2000
    5.3928    3.9913   23.1631 N   0  0  0  0  0  0  0  0  0  0  0  0
    5.9996    2.6202   23.2066 C   0  0  0  0  0  0  0  0  0  0  0  0
    7.4909    2.4594   23.1982 C   0  0  0  0  0  0  0  0  0  0  0  0
    8.9573    2.1438   23.1957 C   0  0  0  0  0  0  0  0  0  0  0  0
   10.0315    2.7109   23.1651 O   0  0  0  0  0  0  0  0  0  0  0  0
    9.1106    0.6525   23.2478 N   0  0  0  0  0  0  0  0  0  0  0  0
    7.7389    0.0465   23.2825 C   0  0  0  0  0  0  0  0  0  0  0  0
    6.7379    1.1633   23.2519 C   0  0  0  0  0  0  0  0  0  0  0  0
    8.3755    3.6698   23.1464 C   0  0  0  0  0  0  0  0  0  0  0  0
    9.8668    3.5091   23.1380 C   0  0  0  0  0  0  0  0  0  0  0  0
   10.7513    4.7194   23.0862 C   0  0  0  0  0  0  0  0  0  0  0  0
   12.2427    4.5587   23.0778 Cl  0  0  0  0  0  0  0  0  0  0  0  0
   10.1444    6.0905   23.0427 C   0  0  0  0  0  0  0  0  0  0  0  0
    8.6531    6.2512   23.0511 C   0  0  0  0  0  0  0  0  0  0  0  0
    7.7687    5.0409   23.1029 C   0  0  0  0  0  0  0  0  0  0  0  0
    6.2773    5.2016   23.1113 C   0  0  0  0  0  0  0  0  0  0  0  0
    5.6704    6.5727   23.0678 O   0  0  0  0  0  0  0  0  0  0  0  0
   10.4078   -0.1005   23.2625 C   0  0  0  0  0  0  0  0  0  0  0  0
   11.4565    0.1918   22.2305 C   0  0  0  0  0  0  0  0  0  0  0  0
   12.7537   -0.5612   22.2453 N   0  0  0  0  0  0  0  0  0  0  0  0
   13.0022   -1.6064   23.2920 C   0  0  0  0  0  0  0  0  0  0  0  0
   11.9536   -1.8987   24.3240 C   0  0  0  0  0  0  0  0  0  0  0  0
   12.2022   -2.9440   25.3707 C   0  0  0  0  0  0  0  0  0  0  0  0
   11.1535   -3.2362   26.4027 C   0  0  0  0  0  0  0  0  0  0  0  0
    9.8563   -2.4832   26.3879 C   0  0  0  0  0  0  0  0  0  0  0  0
    9.6077   -1.4379   25.3412 C   0  0  0  0  0  0  0  0  0  0  0  0
   10.6564   -1.1457   24.3092 C   0  0  0  0  0  0  0  0  0  0  0  0
    3.9014    4.1520   23.1715 C   0  0  0  0  0  0  0  0  0  0  0  0
    2.1934    3.8415   19.6027 C   0  0  0  0  0  0  0  0  0  0  0  0
    3.0117    4.3755   20.7408 N   0  0  0  0  0  0  0  0  0  0  0  0
    3.0831    3.6179   22.0334 C   0  0  0  0  0  0  0  0  0  0  0  0
    2.3363    2.3262   22.1880 O   0  0  0  0  0  0  0  0  0  0  0  0
    3.5019    5.2233   20.6393 H   0  0  0  0  0  0  0  0  0  0  0  0
    5.2458    1.0106   23.2716 C   0  0  0  0  0  0  0  0  0  0  0  0
    4.5662    0.1516   22.2468 N   0  0  0  0  0  0  0  0  0  0  0  0
    3.8275   -0.4419   22.5138 H   0  0  0  0  0  0  0  0  0  0  0  0
    5.0121    0.1967   20.8154 C   0  0  0  0  0  0  0  0  0  0  0  0
    4.2018    0.9476   19.8007 C   0  0  0  0  0  0  0  0  0  0  0  0
    4.6476    0.9928   18.3693 C   0  0  0  0  0  0  0  0  0  0  0  0
    5.9039    0.2870   17.9524 N   0  0  0  0  0  0  0  0  0  0  0  0
    6.7142   -0.4639   18.9670 C   0  0  0  0  0  0  0  0  0  0  0  0
    6.2683   -0.5090   20.3985 N   0  0  0  0  0  0  0  0  0  0  0  0
 29 30  1  0  0  0
 30 31  1  0  0  0
 31 32  2  0  0  0
 31 28  1  0  0  0
 28  1  1  0  0  0
  1  2  1  0  0  0
  3  2  1  0  0  0
  3  4  1  0  0  0
  4  5  2  0  0  0
  4  6  1  0  0  0
  6 18  1  0  0  0
 18 19  2  0  0  0
 19 20  1  0  0  0
 20 21  2  0  0  0
 21 22  1  0  0  0
 22 23  2  0  0  0
 23 24  1  0  0  0
 24 25  2  0  0  0
 25 26  1  0  0  0
 26 27  2  0  0  0
  6  7  1  0  0  0
  7  8  1  0  0  0
  8 34  1  0  0  0
 34 35  1  0  0  0
 35 37  1  0  0  0
 37 38  2  0  0  0
 38 39  1  0  0  0
 39 40  2  0  0  0
 40 41  1  0  0  0
 41 42  2  0  0  0
  3  9  1  0  0  0
  9 10  2  0  0  0
 10 11  1  0  0  0
 11 12  1  0  0  0
 11 13  2  0  0  0
 13 14  1  0  0  0
 14 15  2  0  0  0
 15 16  1  0  0  0
 16 17  2  0  0  0
 16  1  1  0  0  0
  8  3  1  0  0  0
 42 37  1  0  0  0
 15  9  1  0  0  0
 27 18  1  0  0  0
 27 22  1  0  0  0
 30 33  1  0  0  0
 35 36  1  0  0  0
M  END
> <minimizedAffinity>
-8.21453

> <CNNscore>
0.1588561237

> <CNNaffinity>
6.3906383514

> <CNN_VS>
1.0151920319

> <CNNaffinity_variance>
0.2479533255

$$$$



 42 47  0  0  0  0  0  0  0  0999 V2000
    9.7095    0.7457   22.6496 N   0  0  0  0  0  0  0  0  0  0  0  0
    8.5806   -0.2319   22.5085 C   0  0  0  0  0  0  0  0  0  0  0  0
    8.5905   -1.5079   23.2970 C   0  0  0  0  0  0  0  0  0  0  0  0
    8.4635   -2.8179   24.0165 C   0  0  0  0  0  0  0  0  0  0  0  0
    9.0631   -3.4972   24.8260 O   0  0  0  0  0  0  0  0  0  0  0  0
    7.1849   -3.4668   23.5758 N   0  0  0  0  0  0  0  0  0  0  0  0
    6.5217   -2.5578   22.5839 C   0  0  0  0  0  0  0  0  0  0  0  0
    7.3904   -1.3472   22.4116 C   0  0  0  0  0  0  0  0  0  0  0  0
    9.7293   -1.8064   24.2266 C   0  0  0  0  0  0  0  0  0  0  0  0
    9.7392   -3.0823   25.0150 C   0  0  0  0  0  0  0  0  0  0  0  0
   10.8780   -3.3807   25.9446 C   0  0  0  0  0  0  0  0  0  0  0  0
   10.8879   -4.6568   26.7331 Cl  0  0  0  0  0  0  0  0  0  0  0  0
   12.0069   -2.4031   26.0857 C   0  0  0  0  0  0  0  0  0  0  0  0
   11.9970   -1.1272   25.2972 C   0  0  0  0  0  0  0  0  0  0  0  0
   10.8582   -0.8288   24.3677 C   0  0  0  0  0  0  0  0  0  0  0  0
   10.8483    0.4473   23.5791 C   0  0  0  0  0  0  0  0  0  0  0  0
   11.9772    1.4249   23.7202 O   0  0  0  0  0  0  0  0  0  0  0  0
    6.6614   -4.7920   24.0448 C   0  0  0  0  0  0  0  0  0  0  0  0
    7.1966   -6.0619   23.4524 C   0  0  0  0  0  0  0  0  0  0  0  0
    6.6731   -7.3871   23.9213 N   0  0  0  0  0  0  0  0  0  0  0  0
    5.6146   -7.4423   24.9826 C   0  0  0  0  0  0  0  0  0  0  0  0
    5.0795   -6.1724   25.5750 C   0  0  0  0  0  0  0  0  0  0  0  0
    4.0208   -6.2277   26.6363 C   0  0  0  0  0  0  0  0  0  0  0  0
    3.4858   -4.9577   27.2287 C   0  0  0  0  0  0  0  0  0  0  0  0
    4.0092   -3.6325   26.7598 C   0  0  0  0  0  0  0  0  0  0  0  0
    5.0678   -3.5772   25.6985 C   0  0  0  0  0  0  0  0  0  0  0  0
    5.6029   -4.8472   25.1061 C   0  0  0  0  0  0  0  0  0  0  0  0
    9.6996    2.0217   21.8611 C   0  0  0  0  0  0  0  0  0  0  0  0
   10.7872    5.4903   23.4536 C   0  0  0  0  0  0  0  0  0  0  0  0
    9.9344    4.3346   23.0209 N   0  0  0  0  0  0  0  0  0  0  0  0
   10.5524    3.1774   22.2938 C   0  0  0  0  0  0  0  0  0  0  0  0
   12.0232    3.1757   21.9992 O   0  0  0  0  0  0  0  0  0  0  0  0
    8.9691    4.3357   23.2142 H   0  0  0  0  0  0  0  0  0  0  0  0
    7.1085   -0.1806   21.5118 C   0  0  0  0  0  0  0  0  0  0  0  0
    5.9668   -0.2409   20.5409 N   0  0  0  0  0  0  0  0  0  0  0  0
    5.8066   -1.0607   20.0198 H   0  0  0  0  0  0  0  0  0  0  0  0
    5.0691    0.9477   20.3639 C   0  0  0  0  0  0  0  0  0  0  0  0
    4.1979    1.0550   19.1476 C   0  0  0  0  0  0  0  0  0  0  0  0
    3.3002    2.2435   18.9705 C   0  0  0  0  0  0  0  0  0  0  0  0
    3.2736    3.3249   20.0098 N   0  0  0  0  0  0  0  0  0  0  0  0
    4.1448    3.2175   21.2262 C   0  0  0  0  0  0  0  0  0  0  0  0
    5.0425    2.0289   21.4032 N   0  0  0  0  0  0  0  0  0  0  0  0
 29 30  1  0  0  0
 30 31  1  0  0  0
 31 32  2  0  0  0
 31 28  1  0  0  0
 28  1  1  0  0  0
  1  2  1  0  0  0
  3  2  1  0  0  0
  3  4  1  0  0  0
  4  5  2  0  0  0
  4  6  1  0  0  0
  6 18  1  0  0  0
 18 19  2  0  0  0
 19 20  1  0  0  0
 20 21  2  0  0  0
 21 22  1  0  0  0
 22 23  2  0  0  0
 23 24  1  0  0  0
 24 25  2  0  0  0
 25 26  1  0  0  0
 26 27  2  0  0  0
  6  7  1  0  0  0
  7  8  1  0  0  0
  8 34  1  0  0  0
 34 35  1  0  0  0
 35 37  1  0  0  0
 37 38  2  0  0  0
 38 39  1  0  0  0
 39 40  2  0  0  0
 40 41  1  0  0  0
 41 42  2  0  0  0
  3  9  1  0  0  0
  9 10  2  0  0  0
 10 11  1  0  0  0
 11 12  1  0  0  0
 11 13  2  0  0  0
 13 14  1  0  0  0
 14 15  2  0  0  0
 15 16  1  0  0  0
 16 17  2  0  0  0
 16  1  1  0  0  0
  8  3  1  0  0  0
 42 37  1  0  0  0
 15  9  1  0  0  0
 27 18  1  0  0  0
 27 22  1  0  0  0
 30 33  1  0  0  0
 35 36  1  0  0  0
M  END
> <minimizedAffinity>
-8.87782

> <CNNscore>
0.1520684510

> <CNNaffinity>
6.8291559219

> <CNN_VS>
1.0384991169

> <CNNaffinity_variance>
0.1130708456

$$$$



 42 47  0  0  0  0  0  0  0  0999 V2000
   10.6253    1.4436   22.8403 N   0  0  0  0  0  0  0  0  0  0  0  0
    9.2266    1.0922   23.2528 C   0  0  0  0  0  0  0  0  0  0  0  0
    8.9869   -0.0521   24.1924 C   0  0  0  0  0  0  0  0  0  0  0  0
    8.5941   -1.1636   25.1199 C   0  0  0  0  0  0  0  0  0  0  0  0
    9.1019   -2.0477   25.7809 O   0  0  0  0  0  0  0  0  0  0  0  0
    7.0998   -1.1521   25.2506 N   0  0  0  0  0  0  0  0  0  0  0  0
    6.5691   -0.0335   24.4038 C   0  0  0  0  0  0  0  0  0  0  0  0
    7.7354    0.6463   23.7498 C   0  0  0  0  0  0  0  0  0  0  0  0
   10.1459   -0.8453   24.7195 C   0  0  0  0  0  0  0  0  0  0  0  0
    9.9061   -1.9896   25.6591 C   0  0  0  0  0  0  0  0  0  0  0  0
   11.0651   -2.7827   26.1862 C   0  0  0  0  0  0  0  0  0  0  0  0
   10.8253   -3.9271   27.1258 Cl  0  0  0  0  0  0  0  0  0  0  0  0
   12.4638   -2.4313   25.7737 C   0  0  0  0  0  0  0  0  0  0  0  0
   12.7035   -1.2869   24.8341 C   0  0  0  0  0  0  0  0  0  0  0  0
   11.5446   -0.4939   24.3070 C   0  0  0  0  0  0  0  0  0  0  0  0
   11.7843    0.6505   23.3674 C   0  0  0  0  0  0  0  0  0  0  0  0
   13.1830    1.0019   22.9549 O   0  0  0  0  0  0  0  0  0  0  0  0
    6.2802   -2.0938   26.0820 C   0  0  0  0  0  0  0  0  0  0  0  0
    6.0412   -3.4974   25.6098 C   0  0  0  0  0  0  0  0  0  0  0  0
    5.2215   -4.4391   26.4413 N   0  0  0  0  0  0  0  0  0  0  0  0
    4.6410   -3.9773   27.7450 C   0  0  0  0  0  0  0  0  0  0  0  0
    4.8800   -2.5738   28.2172 C   0  0  0  0  0  0  0  0  0  0  0  0
    4.2994   -2.1120   29.5210 C   0  0  0  0  0  0  0  0  0  0  0  0
    4.5385   -0.7085   29.9932 C   0  0  0  0  0  0  0  0  0  0  0  0
    5.3581    0.2333   29.1617 C   0  0  0  0  0  0  0  0  0  0  0  0
    5.9387   -0.2285   27.8580 C   0  0  0  0  0  0  0  0  0  0  0  0
    5.6996   -1.6321   27.3857 C   0  0  0  0  0  0  0  0  0  0  0  0
   10.8651    2.5880   21.9006 C   0  0  0  0  0  0  0  0  0  0  0  0
   10.6730    6.2510   23.4157 C   0  0  0  0  0  0  0  0  0  0  0  0
   10.2514    4.9154   22.8787 N   0  0  0  0  0  0  0  0  0  0  0  0
   11.2867    3.9236   22.4377 C   0  0  0  0  0  0  0  0  0  0  0  0
   12.7436    4.2674   22.5336 O   0  0  0  0  0  0  0  0  0  0  0  0
    9.2952    4.6898   22.8157 H   0  0  0  0  0  0  0  0  0  0  0  0
    7.6628    1.8187   22.8169 C   0  0  0  0  0  0  0  0  0  0  0  0
    6.3916    2.1103   22.0762 N   0  0  0  0  0  0  0  0  0  0  0  0
    5.7394    2.7465   22.4493 H   0  0  0  0  0  0  0  0  0  0  0  0
    6.1139    1.4327   20.7671 C   0  0  0  0  0  0  0  0  0  0  0  0
    4.8266    1.6970   20.0440 C   0  0  0  0  0  0  0  0  0  0  0  0
    4.5489    1.0194   18.7350 C   0  0  0  0  0  0  0  0  0  0  0  0
    5.5586    0.0775   18.1489 N   0  0  0  0  0  0  0  0  0  0  0  0
    6.8460   -0.1868   18.8720 C   0  0  0  0  0  0  0  0  0  0  0  0
    7.1236    0.4908   20.1811 N   0  0  0  0  0  0  0  0  0  0  0  0
 29 30  1  0  0  0
 30 31  1  0  0  0
 31 32  2  0  0  0
 31 28  1  0  0  0
 28  1  1  0  0  0
  1  2  1  0  0  0
  3  2  1  0  0  0
  3  4  1  0  0  0
  4  5  2  0  0  0
  4  6  1  0  0  0
  6 18  1  0  0  0
 18 19  2  0  0  0
 19 20  1  0  0  0
 20 21  2  0  0  0
 21 22  1  0  0  0
 22 23  2  0  0  0
 23 24  1  0  0  0
 24 25  2  0  0  0
 25 26  1  0  0  0
 26 27  2  0  0  0
  6  7  1  0  0  0
  7  8  1  0  0  0
  8 34  1  0  0  0
 34 35  1  0  0  0
 35 37  1  0  0  0
 37 38  2  0  0  0
 38 39  1  0  0  0
 39 40  2  0  0  0
 40 41  1  0  0  0
 41 42  2  0  0  0
  3  9  1  0  0  0
  9 10  2  0  0  0
 10 11  1  0  0  0
 11 12  1  0  0  0
 11 13  2  0  0  0
 13 14  1  0  0  0
 14 15  2  0  0  0
 15 16  1  0  0  0
 16 17  2  0  0  0
 16  1  1  0  0  0
  8  3  1  0  0  0
 42 37  1  0  0  0
 15  9  1  0  0  0
 27 18  1  0  0  0
 27 22  1  0  0  0
 30 33  1  0  0  0
 35 36  1  0  0  0
M  END
> <minimizedAffinity>
-8.89511

> <CNNscore>
0.1468747705

> <CNNaffinity>
6.8203363419

> <CNN_VS>
1.0017353296

> <CNNaffinity_variance>
0.1185138673

$$$$



 42 47  0  0  0  0  0  0  0  0999 V2000
   10.6440    1.4338   22.7777 N   0  0  0  0  0  0  0  0  0  0  0  0
    9.2482    1.0091   23.1260 C   0  0  0  0  0  0  0  0  0  0  0  0
    9.0256   -0.1655   24.0320 C   0  0  0  0  0  0  0  0  0  0  0  0
    8.6493   -1.3140   24.9204 C   0  0  0  0  0  0  0  0  0  0  0  0
    9.1716   -2.1879   25.5836 O   0  0  0  0  0  0  0  0  0  0  0  0
    7.1521   -1.3746   24.9905 N   0  0  0  0  0  0  0  0  0  0  0  0
    6.6032   -0.2635   24.1454 C   0  0  0  0  0  0  0  0  0  0  0  0
    7.7611    0.4837   23.5531 C   0  0  0  0  0  0  0  0  0  0  0  0
   10.1990   -0.9154   24.5897 C   0  0  0  0  0  0  0  0  0  0  0  0
    9.9764   -2.0900   25.4957 C   0  0  0  0  0  0  0  0  0  0  0  0
   11.1497   -2.8399   26.0534 C   0  0  0  0  0  0  0  0  0  0  0  0
   10.9272   -4.0145   26.9594 Cl  0  0  0  0  0  0  0  0  0  0  0  0
   12.5455   -2.4152   25.7051 C   0  0  0  0  0  0  0  0  0  0  0  0
   12.7681   -1.2406   24.7991 C   0  0  0  0  0  0  0  0  0  0  0  0
   11.5948   -0.4907   24.2414 C   0  0  0  0  0  0  0  0  0  0  0  0
   11.8173    0.6839   23.3354 C   0  0  0  0  0  0  0  0  0  0  0  0
   13.2131    1.1086   22.9871 O   0  0  0  0  0  0  0  0  0  0  0  0
    6.3456   -2.3713   25.7690 C   0  0  0  0  0  0  0  0  0  0  0  0
    5.7933   -2.0026   27.1140 C   0  0  0  0  0  0  0  0  0  0  0  0
    4.9867   -2.9992   27.8925 N   0  0  0  0  0  0  0  0  0  0  0  0
    4.7324   -4.3647   27.3260 C   0  0  0  0  0  0  0  0  0  0  0  0
    5.2847   -4.7334   25.9810 C   0  0  0  0  0  0  0  0  0  0  0  0
    5.0304   -6.0989   25.4145 C   0  0  0  0  0  0  0  0  0  0  0  0
    5.5828   -6.4675   24.0694 C   0  0  0  0  0  0  0  0  0  0  0  0
    6.3893   -5.4708   23.2909 C   0  0  0  0  0  0  0  0  0  0  0  0
    6.6436   -4.1054   23.8575 C   0  0  0  0  0  0  0  0  0  0  0  0
    6.0913   -3.7367   25.2025 C   0  0  0  0  0  0  0  0  0  0  0  0
   10.8665    2.6084   21.8717 C   0  0  0  0  0  0  0  0  0  0  0  0
   10.6362    6.2396   23.4564 C   0  0  0  0  0  0  0  0  0  0  0  0
   10.2283    4.9156   22.8814 N   0  0  0  0  0  0  0  0  0  0  0  0
   11.2744    3.9324   22.4467 C   0  0  0  0  0  0  0  0  0  0  0  0
   12.7285    4.2732   22.5870 O   0  0  0  0  0  0  0  0  0  0  0  0
    9.2740    4.6919   22.7893 H   0  0  0  0  0  0  0  0  0  0  0  0
    7.6703    1.6717   22.6417 C   0  0  0  0  0  0  0  0  0  0  0  0
    6.3703    2.0059   21.9723 N   0  0  0  0  0  0  0  0  0  0  0  0
    5.7333    2.6152   22.4106 H   0  0  0  0  0  0  0  0  0  0  0  0
    6.0408    1.4117   20.6350 C   0  0  0  0  0  0  0  0  0  0  0  0
    4.7563    1.7729   19.9497 C   0  0  0  0  0  0  0  0  0  0  0  0
    4.4268    1.1788   18.6125 C   0  0  0  0  0  0  0  0  0  0  0  0
    5.3818    0.2233   17.9604 N   0  0  0  0  0  0  0  0  0  0  0  0
    6.6662   -0.1379   18.6456 C   0  0  0  0  0  0  0  0  0  0  0  0
    6.9958    0.4563   19.9829 N   0  0  0  0  0  0  0  0  0  0  0  0
 29 30  1  0  0  0
 30 31  1  0  0  0
 31 32  2  0  0  0
 31 28  1  0  0  0
 28  1  1  0  0  0
  1  2  1  0  0  0
  3  2  1  0  0  0
  3  4  1  0  0  0
  4  5  2  0  0  0
  4  6  1  0  0  0
  6 18  1  0  0  0
 18 19  2  0  0  0
 19 20  1  0  0  0
 20 21  2  0  0  0
 21 22  1  0  0  0
 22 23  2  0  0  0
 23 24  1  0  0  0
 24 25  2  0  0  0
 25 26  1  0  0  0
 26 27  2  0  0  0
  6  7  1  0  0  0
  7  8  1  0  0  0
  8 34  1  0  0  0
 34 35  1  0  0  0
 35 37  1  0  0  0
 37 38  2  0  0  0
 38 39  1  0  0  0
 39 40  2  0  0  0
 40 41  1  0  0  0
 41 42  2  0  0  0
  3  9  1  0  0  0
  9 10  2  0  0  0
 10 11  1  0  0  0
 11 12  1  0  0  0
 11 13  2  0  0  0
 13 14  1  0  0  0
 14 15  2  0  0  0
 15 16  1  0  0  0
 16 17  2  0  0  0
 16  1  1  0  0  0
  8  3  1  0  0  0
 42 37  1  0  0  0
 15  9  1  0  0  0
 27 18  1  0  0  0
 27 22  1  0  0  0
 30 33  1  0  0  0
 35 36  1  0  0  0
M  END
> <minimizedAffinity>
-9.27428

> <CNNscore>
0.1450970322

> <CNNaffinity>
6.9827561378

> <CNN_VS>
1.0131771564

> <CNNaffinity_variance>
0.1011401564

$$$$



 42 47  0  0  0  0  0  0  0  0999 V2000
    5.5716    3.9870   22.9141 N   0  0  0  0  0  0  0  0  0  0  0  0
    6.1348    2.6011   23.0235 C   0  0  0  0  0  0  0  0  0  0  0  0
    7.6191    2.3985   23.0990 C   0  0  0  0  0  0  0  0  0  0  0  0
    9.0737    2.0420   23.1828 C   0  0  0  0  0  0  0  0  0  0  0  0
   10.1642    2.5779   23.1961 O   0  0  0  0  0  0  0  0  0  0  0  0
    9.1803    0.5489   23.2794 N   0  0  0  0  0  0  0  0  0  0  0  0
    7.7915   -0.0174   23.2553 C   0  0  0  0  0  0  0  0  0  0  0  0
    6.8267    1.1257   23.1438 C   0  0  0  0  0  0  0  0  0  0  0  0
    8.5403    3.5819   23.0652 C   0  0  0  0  0  0  0  0  0  0  0  0
   10.0246    3.3794   23.1408 C   0  0  0  0  0  0  0  0  0  0  0  0
   10.9457    4.5628   23.1070 C   0  0  0  0  0  0  0  0  0  0  0  0
   12.4301    4.3603   23.1826 Cl  0  0  0  0  0  0  0  0  0  0  0  0
   10.3824    5.9487   22.9976 C   0  0  0  0  0  0  0  0  0  0  0  0
    8.8981    6.1512   22.9221 C   0  0  0  0  0  0  0  0  0  0  0  0
    7.9771    4.9679   22.9559 C   0  0  0  0  0  0  0  0  0  0  0  0
    6.4927    5.1704   22.8803 C   0  0  0  0  0  0  0  0  0  0  0  0
    5.9294    6.5563   22.7709 O   0  0  0  0  0  0  0  0  0  0  0  0
   10.4523   -0.2394   23.3821 C   0  0  0  0  0  0  0  0  0  0  0  0
   11.5769    0.0234   22.4249 C   0  0  0  0  0  0  0  0  0  0  0  0
   12.8489   -0.7649   22.5276 N   0  0  0  0  0  0  0  0  0  0  0  0
   12.9962   -1.8161   23.5874 C   0  0  0  0  0  0  0  0  0  0  0  0
   11.8716   -2.0790   24.5446 C   0  0  0  0  0  0  0  0  0  0  0  0
   12.0190   -3.1302   25.6044 C   0  0  0  0  0  0  0  0  0  0  0  0
   10.8943   -3.3930   26.5616 C   0  0  0  0  0  0  0  0  0  0  0  0
    9.6224   -2.6046   26.4589 C   0  0  0  0  0  0  0  0  0  0  0  0
    9.4750   -1.5535   25.3991 C   0  0  0  0  0  0  0  0  0  0  0  0
   10.5996   -1.2906   24.4419 C   0  0  0  0  0  0  0  0  0  0  0  0
    4.0872    4.1895   22.8385 C   0  0  0  0  0  0  0  0  0  0  0  0
    2.4086    5.0699   26.3252 C   0  0  0  0  0  0  0  0  0  0  0  0
    3.2453    5.1853   25.0856 N   0  0  0  0  0  0  0  0  0  0  0  0
    3.2505    4.0741   24.0781 C   0  0  0  0  0  0  0  0  0  0  0  0
    2.4188    2.8474   24.3101 O   0  0  0  0  0  0  0  0  0  0  0  0
    3.7912    5.9903   24.9334 H   0  0  0  0  0  0  0  0  0  0  0  0
    5.3318    1.0154   23.0871 C   0  0  0  0  0  0  0  0  0  0  0  0
    4.6861    0.0615   22.1264 N   0  0  0  0  0  0  0  0  0  0  0  0
    4.0883   -0.6453   22.4614 H   0  0  0  0  0  0  0  0  0  0  0  0
    4.9510    0.1845   20.6551 C   0  0  0  0  0  0  0  0  0  0  0  0
    4.1244    1.1163   19.8194 C   0  0  0  0  0  0  0  0  0  0  0  0
    4.3893    1.2393   18.3482 C   0  0  0  0  0  0  0  0  0  0  0  0
    5.4810    0.4305   17.7125 N   0  0  0  0  0  0  0  0  0  0  0  0
    6.3077   -0.5013   18.5481 C   0  0  0  0  0  0  0  0  0  0  0  0
    6.0427   -0.6243   20.0194 N   0  0  0  0  0  0  0  0  0  0  0  0
 29 30  1  0  0  0
 30 31  1  0  0  0
 31 32  2  0  0  0
 31 28  1  0  0  0
 28  1  1  0  0  0
  1  2  1  0  0  0
  3  2  1  0  0  0
  3  4  1  0  0  0
  4  5  2  0  0  0
  4  6  1  0  0  0
  6 18  1  0  0  0
 18 19  2  0  0  0
 19 20  1  0  0  0
 20 21  2  0  0  0
 21 22  1  0  0  0
 22 23  2  0  0  0
 23 24  1  0  0  0
 24 25  2  0  0  0
 25 26  1  0  0  0
 26 27  2  0  0  0
  6  7  1  0  0  0
  7  8  1  0  0  0
  8 34  1  0  0  0
 34 35  1  0  0  0
 35 37  1  0  0  0
 37 38  2  0  0  0
 38 39  1  0  0  0
 39 40  2  0  0  0
 40 41  1  0  0  0
 41 42  2  0  0  0
  3  9  1  0  0  0
  9 10  2  0  0  0
 10 11  1  0  0  0
 11 12  1  0  0  0
 11 13  2  0  0  0
 13 14  1  0  0  0
 14 15  2  0  0  0
 15 16  1  0  0  0
 16 17  2  0  0  0
 16  1  1  0  0  0
  8  3  1  0  0  0
 42 37  1  0  0  0
 15  9  1  0  0  0
 27 18  1  0  0  0
 27 22  1  0  0  0
 30 33  1  0  0  0
 35 36  1  0  0  0
M  END
> <minimizedAffinity>
-7.85005

> <CNNscore>
0.1314820945

> <CNNaffinity>
6.4470825195

> <CNN_VS>
0.8476759195

> <CNNaffinity_variance>
0.2900279462

$$$$
