


 42 47  0  0  0  0  0  0  0  0999 V2000
   -7.3342   -1.1507  -23.1278 N   0  0  0  0  0  0  0  0  0  0  0  0
   -7.7533    0.2766  -23.3204 C   0  0  0  0  0  0  0  0  0  0  0  0
   -9.2101    0.6325  -23.3538 C   0  0  0  0  0  0  0  0  0  0  0  0
  -10.6216    1.1372  -23.4083 C   0  0  0  0  0  0  0  0  0  0  0  0
  -11.7616    0.7228  -23.3387 O   0  0  0  0  0  0  0  0  0  0  0  0
  -10.5752    2.6224  -23.6139 N   0  0  0  0  0  0  0  0  0  0  0  0
   -9.1351    3.0355  -23.6866 C   0  0  0  0  0  0  0  0  0  0  0  0
   -8.2914    1.8057  -23.5258 C   0  0  0  0  0  0  0  0  0  0  0  0
  -10.2478   -0.4389  -23.1946 C   0  0  0  0  0  0  0  0  0  0  0  0
  -11.7045   -0.0831  -23.2280 C   0  0  0  0  0  0  0  0  0  0  0  0
  -12.7421   -1.1545  -23.0688 C   0  0  0  0  0  0  0  0  0  0  0  0
  -14.1990   -0.7986  -23.1022 Cl  0  0  0  0  0  0  0  0  0  0  0  0
  -12.3230   -2.5818  -22.8761 C   0  0  0  0  0  0  0  0  0  0  0  0
  -10.8662   -2.9377  -22.8428 C   0  0  0  0  0  0  0  0  0  0  0  0
   -9.8286   -1.8663  -23.0020 C   0  0  0  0  0  0  0  0  0  0  0  0
   -8.3718   -2.2221  -22.9686 C   0  0  0  0  0  0  0  0  0  0  0  0
   -7.9526   -3.6494  -22.7760 O   0  0  0  0  0  0  0  0  0  0  0  0
  -11.7608    3.5342  -23.7270 C   0  0  0  0  0  0  0  0  0  0  0  0
  -12.6941    3.6989  -22.5643 C   0  0  0  0  0  0  0  0  0  0  0  0
  -13.8797    4.6107  -22.6774 N   0  0  0  0  0  0  0  0  0  0  0  0
  -14.1321    5.3579  -23.9533 C   0  0  0  0  0  0  0  0  0  0  0  0
  -13.1989    5.1933  -25.1161 C   0  0  0  0  0  0  0  0  0  0  0  0
  -13.4513    5.9405  -26.3920 C   0  0  0  0  0  0  0  0  0  0  0  0
  -12.5181    5.7758  -27.5548 C   0  0  0  0  0  0  0  0  0  0  0  0
  -11.3324    4.8640  -27.4416 C   0  0  0  0  0  0  0  0  0  0  0  0
  -11.0800    4.1168  -26.1657 C   0  0  0  0  0  0  0  0  0  0  0  0
  -12.0132    4.2814  -25.0029 C   0  0  0  0  0  0  0  0  0  0  0  0
   -5.8773   -1.5065  -23.0944 C   0  0  0  0  0  0  0  0  0  0  0  0
   -2.8497    0.7436  -21.8614 C   0  0  0  0  0  0  0  0  0  0  0  0
   -3.7836   -0.0036  -22.7667 N   0  0  0  0  0  0  0  0  0  0  0  0
   -4.9434   -0.7594  -22.1891 C   0  0  0  0  0  0  0  0  0  0  0  0
   -5.1692   -0.7681  -20.7062 O   0  0  0  0  0  0  0  0  0  0  0  0
   -3.6354    0.0022  -23.7400 H   0  0  0  0  0  0  0  0  0  0  0  0
   -6.7922    1.7576  -23.5354 C   0  0  0  0  0  0  0  0  0  0  0  0
   -6.0156    2.3448  -22.3944 N   0  0  0  0  0  0  0  0  0  0  0  0
   -5.7242    1.7702  -21.6500 H   0  0  0  0  0  0  0  0  0  0  0  0
   -5.6830    3.8074  -22.3875 C   0  0  0  0  0  0  0  0  0  0  0  0
   -4.2636    4.2547  -22.5748 C   0  0  0  0  0  0  0  0  0  0  0  0
   -3.9310    5.7173  -22.5679 C   0  0  0  0  0  0  0  0  0  0  0  0
   -5.0179    6.7328  -22.3736 N   0  0  0  0  0  0  0  0  0  0  0  0
   -6.4373    6.2855  -22.1863 C   0  0  0  0  0  0  0  0  0  0  0  0
   -6.7699    4.8228  -22.1932 N   0  0  0  0  0  0  0  0  0  0  0  0
 29 30  1  0  0  0
 30 31  1  0  0  0
 31 32  2  0  0  0
 31 28  1  0  0  0
 28  1  1  0  0  0
  1  2  1  0  0  0
  3  2  1  0  0  0
  3  4  1  0  0  0
  4  5  2  0  0  0
  4  6  1  0  0  0
  6 18  1  0  0  0
 18 19  2  0  0  0
 19 20  1  0  0  0
 20 21  2  0  0  0
 21 22  1  0  0  0
 22 23  2  0  0  0
 23 24  1  0  0  0
 24 25  2  0  0  0
 25 26  1  0  0  0
 26 27  2  0  0  0
  6  7  1  0  0  0
  7  8  1  0  0  0
  8 34  1  0  0  0
 34 35  1  0  0  0
 35 37  1  0  0  0
 37 38  2  0  0  0
 38 39  1  0  0  0
 39 40  2  0  0  0
 40 41  1  0  0  0
 41 42  2  0  0  0
  3  9  1  0  0  0
  9 10  2  0  0  0
 10 11  1  0  0  0
 11 12  1  0  0  0
 11 13  2  0  0  0
 13 14  1  0  0  0
 14 15  2  0  0  0
 15 16  1  0  0  0
 16 17  2  0  0  0
 16  1  1  0  0  0
  8  3  1  0  0  0
 42 37  1  0  0  0
 15  9  1  0  0  0
 27 18  1  0  0  0
 27 22  1  0  0  0
 30 33  1  0  0  0
 35 36  1  0  0  0
M  END
> <minimizedAffinity>
-7.72054

> <CNNscore>
0.5284258127

> <CNNaffinity>
7.0008211136

> <CNN_VS>
3.6994144917

> <CNNaffinity_variance>
0.1102963686

$$$$



 42 47  0  0  0  0  0  0  0  0999 V2000
   -5.4022   -6.1221  -23.5216 N   0  0  0  0  0  0  0  0  0  0  0  0
   -5.9790   -4.8486  -22.9779 C   0  0  0  0  0  0  0  0  0  0  0  0
   -7.0366   -4.1152  -23.7484 C   0  0  0  0  0  0  0  0  0  0  0  0
   -8.0942   -3.2764  -24.4025 C   0  0  0  0  0  0  0  0  0  0  0  0
   -8.7793   -3.2581  -25.4058 O   0  0  0  0  0  0  0  0  0  0  0  0
   -8.3683   -2.0998  -23.5135 N   0  0  0  0  0  0  0  0  0  0  0  0
   -7.4801   -2.2114  -22.3099 C   0  0  0  0  0  0  0  0  0  0  0  0
   -6.6571   -3.4570  -22.4551 C   0  0  0  0  0  0  0  0  0  0  0  0
   -7.5174   -4.6553  -25.0627 C   0  0  0  0  0  0  0  0  0  0  0  0
   -8.5750   -3.9219  -25.8331 C   0  0  0  0  0  0  0  0  0  0  0  0
   -9.0557   -4.4620  -27.1473 C   0  0  0  0  0  0  0  0  0  0  0  0
  -10.1133   -3.7286  -27.9179 Cl  0  0  0  0  0  0  0  0  0  0  0  0
   -8.4789   -5.7354  -27.6910 C   0  0  0  0  0  0  0  0  0  0  0  0
   -7.4214   -6.4688  -26.9206 C   0  0  0  0  0  0  0  0  0  0  0  0
   -6.9406   -5.9288  -25.6064 C   0  0  0  0  0  0  0  0  0  0  0  0
   -5.8830   -6.6621  -24.8358 C   0  0  0  0  0  0  0  0  0  0  0  0
   -5.3062   -7.9356  -25.3795 O   0  0  0  0  0  0  0  0  0  0  0  0
   -9.3570   -1.0039  -23.7811 C   0  0  0  0  0  0  0  0  0  0  0  0
   -8.9012    0.2813  -24.4059 C   0  0  0  0  0  0  0  0  0  0  0  0
   -9.8899    1.3772  -24.6735 N   0  0  0  0  0  0  0  0  0  0  0  0
  -11.3344    1.1877  -24.3163 C   0  0  0  0  0  0  0  0  0  0  0  0
  -11.7902   -0.0976  -23.6915 C   0  0  0  0  0  0  0  0  0  0  0  0
  -13.2347   -0.2870  -23.3343 C   0  0  0  0  0  0  0  0  0  0  0  0
  -13.6904   -1.5723  -22.7095 C   0  0  0  0  0  0  0  0  0  0  0  0
  -12.7017   -2.6681  -22.4419 C   0  0  0  0  0  0  0  0  0  0  0  0
  -11.2572   -2.4787  -22.7991 C   0  0  0  0  0  0  0  0  0  0  0  0
  -10.8015   -1.1934  -23.4239 C   0  0  0  0  0  0  0  0  0  0  0  0
   -4.3446   -6.8555  -22.7511 C   0  0  0  0  0  0  0  0  0  0  0  0
   -0.6452   -8.1804  -23.3069 C   0  0  0  0  0  0  0  0  0  0  0  0
   -2.0140   -8.0031  -22.7195 N   0  0  0  0  0  0  0  0  0  0  0  0
   -2.9759   -7.0328  -23.3385 C   0  0  0  0  0  0  0  0  0  0  0  0
   -2.5691   -6.2398  -24.5451 O   0  0  0  0  0  0  0  0  0  0  0  0
   -2.2810   -8.5235  -21.9276 H   0  0  0  0  0  0  0  0  0  0  0  0
   -5.6342   -3.9567  -21.4783 C   0  0  0  0  0  0  0  0  0  0  0  0
   -5.6712   -3.4953  -20.0516 N   0  0  0  0  0  0  0  0  0  0  0  0
   -5.9168   -4.1259  -19.3366 H   0  0  0  0  0  0  0  0  0  0  0  0
   -5.3342   -2.0731  -19.7142 C   0  0  0  0  0  0  0  0  0  0  0  0
   -4.6886   -1.1913  -20.7415 C   0  0  0  0  0  0  0  0  0  0  0  0
   -4.3515    0.2307  -20.4041 C   0  0  0  0  0  0  0  0  0  0  0  0
   -4.6601    0.7712  -19.0393 N   0  0  0  0  0  0  0  0  0  0  0  0
   -5.3058   -0.1106  -18.0119 C   0  0  0  0  0  0  0  0  0  0  0  0
   -5.6428   -1.5328  -18.3493 N   0  0  0  0  0  0  0  0  0  0  0  0
 29 30  1  0  0  0
 30 31  1  0  0  0
 31 32  2  0  0  0
 31 28  1  0  0  0
 28  1  1  0  0  0
  1  2  1  0  0  0
  3  2  1  0  0  0
  3  4  1  0  0  0
  4  5  2  0  0  0
  4  6  1  0  0  0
  6 18  1  0  0  0
 18 19  2  0  0  0
 19 20  1  0  0  0
 20 21  2  0  0  0
 21 22  1  0  0  0
 22 23  2  0  0  0
 23 24  1  0  0  0
 24 25  2  0  0  0
 25 26  1  0  0  0
 26 27  2  0  0  0
  6  7  1  0  0  0
  7  8  1  0  0  0
  8 34  1  0  0  0
 34 35  1  0  0  0
 35 37  1  0  0  0
 37 38  2  0  0  0
 38 39  1  0  0  0
 39 40  2  0  0  0
 40 41  1  0  0  0
 41 42  2  0  0  0
  3  9  1  0  0  0
  9 10  2  0  0  0
 10 11  1  0  0  0
 11 12  1  0  0  0
 11 13  2  0  0  0
 13 14  1  0  0  0
 14 15  2  0  0  0
 15 16  1  0  0  0
 16 17  2  0  0  0
 16  1  1  0  0  0
  8  3  1  0  0  0
 42 37  1  0  0  0
 15  9  1  0  0  0
 27 18  1  0  0  0
 27 22  1  0  0  0
 30 33  1  0  0  0
 35 36  1  0  0  0
M  END
> <minimizedAffinity>
-8.36827

> <CNNscore>
0.4299649596

> <CNNaffinity>
6.9666266441

> <CNN_VS>
2.9954054356

> <CNNaffinity_variance>
0.1662806422

$$$$



 42 47  0  0  0  0  0  0  0  0999 V2000
   -7.4749   -1.2253  -22.8453 N   0  0  0  0  0  0  0  0  0  0  0  0
   -7.6876    0.2259  -23.1598 C   0  0  0  0  0  0  0  0  0  0  0  0
   -9.0786    0.7597  -23.3335 C   0  0  0  0  0  0  0  0  0  0  0  0
  -10.4037    1.4335  -23.5337 C   0  0  0  0  0  0  0  0  0  0  0  0
  -11.5904    1.1726  -23.5312 O   0  0  0  0  0  0  0  0  0  0  0  0
  -10.1475    2.8821  -23.8270 N   0  0  0  0  0  0  0  0  0  0  0  0
   -8.6641    3.1035  -23.8080 C   0  0  0  0  0  0  0  0  0  0  0  0
   -8.0035    1.7918  -23.5030 C   0  0  0  0  0  0  0  0  0  0  0  0
  -10.2570   -0.1577  -23.1926 C   0  0  0  0  0  0  0  0  0  0  0  0
  -11.6480    0.3760  -23.3663 C   0  0  0  0  0  0  0  0  0  0  0  0
  -12.8263   -0.5413  -23.2254 C   0  0  0  0  0  0  0  0  0  0  0  0
  -14.2174   -0.0076  -23.3991 Cl  0  0  0  0  0  0  0  0  0  0  0  0
  -12.6137   -1.9925  -22.9109 C   0  0  0  0  0  0  0  0  0  0  0  0
  -11.2227   -2.5263  -22.7372 C   0  0  0  0  0  0  0  0  0  0  0  0
  -10.0444   -1.6089  -22.8781 C   0  0  0  0  0  0  0  0  0  0  0  0
   -8.6533   -2.1427  -22.7044 C   0  0  0  0  0  0  0  0  0  0  0  0
   -8.4406   -3.5938  -22.3899 O   0  0  0  0  0  0  0  0  0  0  0  0
  -11.1915    3.9259  -24.0925 C   0  0  0  0  0  0  0  0  0  0  0  0
  -12.0541    4.4261  -22.9719 C   0  0  0  0  0  0  0  0  0  0  0  0
  -13.0980    5.4699  -23.2375 N   0  0  0  0  0  0  0  0  0  0  0  0
  -13.2795    6.0135  -24.6237 C   0  0  0  0  0  0  0  0  0  0  0  0
  -12.4170    5.5132  -25.7443 C   0  0  0  0  0  0  0  0  0  0  0  0
  -12.5985    6.0568  -27.1306 C   0  0  0  0  0  0  0  0  0  0  0  0
  -11.7359    5.5564  -28.2512 C   0  0  0  0  0  0  0  0  0  0  0  0
  -10.6919    4.5126  -27.9856 C   0  0  0  0  0  0  0  0  0  0  0  0
  -10.5105    3.9691  -26.5994 C   0  0  0  0  0  0  0  0  0  0  0  0
  -11.3730    4.4694  -25.4788 C   0  0  0  0  0  0  0  0  0  0  0  0
   -6.0839   -1.7590  -22.6716 C   0  0  0  0  0  0  0  0  0  0  0  0
   -5.5088   -5.4638  -21.3701 C   0  0  0  0  0  0  0  0  0  0  0  0
   -5.7590   -4.3089  -22.2940 N   0  0  0  0  0  0  0  0  0  0  0  0
   -5.8336   -2.9139  -21.7477 C   0  0  0  0  0  0  0  0  0  0  0  0
   -5.6580   -2.6738  -20.2775 O   0  0  0  0  0  0  0  0  0  0  0  0
   -5.8743   -4.4665  -23.2589 H   0  0  0  0  0  0  0  0  0  0  0  0
   -6.5269    1.5541  -23.3878 C   0  0  0  0  0  0  0  0  0  0  0  0
   -5.6226    2.6597  -22.9301 N   0  0  0  0  0  0  0  0  0  0  0  0
   -5.6386    3.5306  -23.3891 H   0  0  0  0  0  0  0  0  0  0  0  0
   -4.6940    2.4387  -21.7730 C   0  0  0  0  0  0  0  0  0  0  0  0
   -3.4067    3.2040  -21.6877 C   0  0  0  0  0  0  0  0  0  0  0  0
   -2.4781    2.9830  -20.5307 C   0  0  0  0  0  0  0  0  0  0  0  0
   -2.8367    1.9967  -19.4589 N   0  0  0  0  0  0  0  0  0  0  0  0
   -4.1239    1.2314  -19.5443 C   0  0  0  0  0  0  0  0  0  0  0  0
   -5.0526    1.4524  -20.7013 N   0  0  0  0  0  0  0  0  0  0  0  0
 29 30  1  0  0  0
 30 31  1  0  0  0
 31 32  2  0  0  0
 31 28  1  0  0  0
 28  1  1  0  0  0
  1  2  1  0  0  0
  3  2  1  0  0  0
  3  4  1  0  0  0
  4  5  2  0  0  0
  4  6  1  0  0  0
  6 18  1  0  0  0
 18 19  2  0  0  0
 19 20  1  0  0  0
 20 21  2  0  0  0
 21 22  1  0  0  0
 22 23  2  0  0  0
 23 24  1  0  0  0
 24 25  2  0  0  0
 25 26  1  0  0  0
 26 27  2  0  0  0
  6  7  1  0  0  0
  7  8  1  0  0  0
  8 34  1  0  0  0
 34 35  1  0  0  0
 35 37  1  0  0  0
 37 38  2  0  0  0
 38 39  1  0  0  0
 39 40  2  0  0  0
 40 41  1  0  0  0
 41 42  2  0  0  0
  3  9  1  0  0  0
  9 10  2  0  0  0
 10 11  1  0  0  0
 11 12  1  0  0  0
 11 13  2  0  0  0
 13 14  1  0  0  0
 14 15  2  0  0  0
 15 16  1  0  0  0
 16 17  2  0  0  0
 16  1  1  0  0  0
  8  3  1  0  0  0
 42 37  1  0  0  0
 15  9  1  0  0  0
 27 18  1  0  0  0
 27 22  1  0  0  0
 30 33  1  0  0  0
 35 36  1  0  0  0
M  END
> <minimizedAffinity>
-7.93357

> <CNNscore>
0.4159182608

> <CNNaffinity>
6.7714371681

> <CNN_VS>
2.8163642883

> <CNNaffinity_variance>
0.0586360469

$$$$



 42 47  0  0  0  0  0  0  0  0999 V2000
   -7.0229   -1.2657  -22.4040 N   0  0  0  0  0  0  0  0  0  0  0  0
   -7.1161    0.0600  -23.0995 C   0  0  0  0  0  0  0  0  0  0  0  0
   -8.4416    0.5532  -23.5994 C   0  0  0  0  0  0  0  0  0  0  0  0
   -9.6910    1.1739  -24.1502 C   0  0  0  0  0  0  0  0  0  0  0  0
  -10.8791    0.9408  -24.2528 O   0  0  0  0  0  0  0  0  0  0  0  0
   -9.3233    2.4953  -24.7576 N   0  0  0  0  0  0  0  0  0  0  0  0
   -7.8466    2.6912  -24.5820 C   0  0  0  0  0  0  0  0  0  0  0  0
   -7.3016    1.4909  -23.8662 C   0  0  0  0  0  0  0  0  0  0  0  0
   -9.6739   -0.2793  -23.4036 C   0  0  0  0  0  0  0  0  0  0  0  0
  -10.9994    0.2139  -23.9034 C   0  0  0  0  0  0  0  0  0  0  0  0
  -12.2317   -0.6186  -23.7076 C   0  0  0  0  0  0  0  0  0  0  0  0
  -13.5572   -0.1255  -24.2075 Cl  0  0  0  0  0  0  0  0  0  0  0  0
  -12.1385   -1.9443  -23.0121 C   0  0  0  0  0  0  0  0  0  0  0  0
  -10.8130   -2.4375  -22.5122 C   0  0  0  0  0  0  0  0  0  0  0  0
   -9.5808   -1.6050  -22.7080 C   0  0  0  0  0  0  0  0  0  0  0  0
   -8.2552   -2.0982  -22.2082 C   0  0  0  0  0  0  0  0  0  0  0  0
   -8.1620   -3.4239  -21.5126 O   0  0  0  0  0  0  0  0  0  0  0  0
  -10.2668    3.4526  -25.4235 C   0  0  0  0  0  0  0  0  0  0  0  0
  -10.1228    3.7522  -26.8862 C   0  0  0  0  0  0  0  0  0  0  0  0
  -11.0662    4.7096  -27.5521 N   0  0  0  0  0  0  0  0  0  0  0  0
  -12.1536    5.3673  -26.7553 C   0  0  0  0  0  0  0  0  0  0  0  0
  -12.2976    5.0677  -25.2926 C   0  0  0  0  0  0  0  0  0  0  0  0
  -13.3851    5.7255  -24.4958 C   0  0  0  0  0  0  0  0  0  0  0  0
  -13.5290    5.4258  -23.0330 C   0  0  0  0  0  0  0  0  0  0  0  0
  -12.5855    4.4685  -22.3671 C   0  0  0  0  0  0  0  0  0  0  0  0
  -11.4981    3.8108  -23.1639 C   0  0  0  0  0  0  0  0  0  0  0  0
  -11.3542    4.1104  -24.6267 C   0  0  0  0  0  0  0  0  0  0  0  0
   -5.6974   -1.7589  -21.9041 C   0  0  0  0  0  0  0  0  0  0  0  0
   -5.5233   -5.7237  -21.8960 C   0  0  0  0  0  0  0  0  0  0  0  0
   -5.6629   -4.3120  -22.3837 N   0  0  0  0  0  0  0  0  0  0  0  0
   -5.5578   -3.1705  -21.4164 C   0  0  0  0  0  0  0  0  0  0  0  0
   -5.3130   -3.4405  -19.9613 O   0  0  0  0  0  0  0  0  0  0  0  0
   -5.8235   -4.1348  -23.3387 H   0  0  0  0  0  0  0  0  0  0  0  0
   -5.8684    1.2676  -23.4843 C   0  0  0  0  0  0  0  0  0  0  0  0
   -4.9723    2.4401  -23.2157 N   0  0  0  0  0  0  0  0  0  0  0  0
   -4.9301    3.1848  -23.8582 H   0  0  0  0  0  0  0  0  0  0  0  0
   -4.1405    2.4781  -21.9680 C   0  0  0  0  0  0  0  0  0  0  0  0
   -4.3763    1.4744  -20.8785 C   0  0  0  0  0  0  0  0  0  0  0  0
   -3.5445    1.5123  -19.6310 C   0  0  0  0  0  0  0  0  0  0  0  0
   -2.4768    2.5540  -19.4727 N   0  0  0  0  0  0  0  0  0  0  0  0
   -2.2410    3.5577  -20.5622 C   0  0  0  0  0  0  0  0  0  0  0  0
   -3.0728    3.5197  -21.8098 N   0  0  0  0  0  0  0  0  0  0  0  0
 29 30  1  0  0  0
 30 31  1  0  0  0
 31 32  2  0  0  0
 31 28  1  0  0  0
 28  1  1  0  0  0
  1  2  1  0  0  0
  3  2  1  0  0  0
  3  4  1  0  0  0
  4  5  2  0  0  0
  4  6  1  0  0  0
  6 18  1  0  0  0
 18 19  2  0  0  0
 19 20  1  0  0  0
 20 21  2  0  0  0
 21 22  1  0  0  0
 22 23  2  0  0  0
 23 24  1  0  0  0
 24 25  2  0  0  0
 25 26  1  0  0  0
 26 27  2  0  0  0
  6  7  1  0  0  0
  7  8  1  0  0  0
  8 34  1  0  0  0
 34 35  1  0  0  0
 35 37  1  0  0  0
 37 38  2  0  0  0
 38 39  1  0  0  0
 39 40  2  0  0  0
 40 41  1  0  0  0
 41 42  2  0  0  0
  3  9  1  0  0  0
  9 10  2  0  0  0
 10 11  1  0  0  0
 11 12  1  0  0  0
 11 13  2  0  0  0
 13 14  1  0  0  0
 14 15  2  0  0  0
 15 16  1  0  0  0
 16 17  2  0  0  0
 16  1  1  0  0  0
  8  3  1  0  0  0
 42 37  1  0  0  0
 15  9  1  0  0  0
 27 18  1  0  0  0
 27 22  1  0  0  0
 30 33  1  0  0  0
 35 36  1  0  0  0
M  END
> <minimizedAffinity>
-7.90790

> <CNNscore>
0.3998242021

> <CNNaffinity>
6.7267050743

> <CNN_VS>
2.6894993782

> <CNNaffinity_variance>
0.1459226310

$$$$



 42 47  0  0  0  0  0  0  0  0999 V2000
   -5.7207   -4.0826  -21.5507 N   0  0  0  0  0  0  0  0  0  0  0  0
   -6.0132   -3.5531  -22.9233 C   0  0  0  0  0  0  0  0  0  0  0  0
   -5.9657   -2.0767  -23.1835 C   0  0  0  0  0  0  0  0  0  0  0  0
   -5.9566   -0.6335  -23.5923 C   0  0  0  0  0  0  0  0  0  0  0  0
   -5.7592    0.4673  -23.1173 O   0  0  0  0  0  0  0  0  0  0  0  0
   -6.3040   -0.5623  -25.0498 N   0  0  0  0  0  0  0  0  0  0  0  0
   -6.5279   -1.9616  -25.5418 C   0  0  0  0  0  0  0  0  0  0  0  0
   -6.3188   -2.8975  -24.3884 C   0  0  0  0  0  0  0  0  0  0  0  0
   -5.6256   -1.1296  -22.0711 C   0  0  0  0  0  0  0  0  0  0  0  0
   -5.5780    0.3469  -22.3314 C   0  0  0  0  0  0  0  0  0  0  0  0
   -5.2379    1.2939  -21.2190 C   0  0  0  0  0  0  0  0  0  0  0  0
   -5.1904    2.7704  -21.4792 Cl  0  0  0  0  0  0  0  0  0  0  0  0
   -4.9453    0.7645  -19.8464 C   0  0  0  0  0  0  0  0  0  0  0  0
   -4.9929   -0.7120  -19.5861 C   0  0  0  0  0  0  0  0  0  0  0  0
   -5.3330   -1.6590  -20.6985 C   0  0  0  0  0  0  0  0  0  0  0  0
   -5.3805   -3.1356  -20.4383 C   0  0  0  0  0  0  0  0  0  0  0  0
   -5.0880   -3.6650  -19.0657 O   0  0  0  0  0  0  0  0  0  0  0  0
   -6.4092    0.6884  -25.8711 C   0  0  0  0  0  0  0  0  0  0  0  0
   -5.3081    1.0569  -26.8208 C   0  0  0  0  0  0  0  0  0  0  0  0
   -5.4133    2.3077  -27.6421 N   0  0  0  0  0  0  0  0  0  0  0  0
   -6.6195    3.1900  -27.5136 C   0  0  0  0  0  0  0  0  0  0  0  0
   -7.7205    2.8216  -26.5639 C   0  0  0  0  0  0  0  0  0  0  0  0
   -8.9268    3.7040  -26.4354 C   0  0  0  0  0  0  0  0  0  0  0  0
  -10.0278    3.3355  -25.4857 C   0  0  0  0  0  0  0  0  0  0  0  0
   -9.9226    2.0847  -24.6644 C   0  0  0  0  0  0  0  0  0  0  0  0
   -8.7164    1.2023  -24.7929 C   0  0  0  0  0  0  0  0  0  0  0  0
   -7.6154    1.5708  -25.7426 C   0  0  0  0  0  0  0  0  0  0  0  0
   -5.7682   -5.5591  -21.2904 C   0  0  0  0  0  0  0  0  0  0  0  0
   -3.5918   -7.4559  -24.0136 C   0  0  0  0  0  0  0  0  0  0  0  0
   -3.9855   -6.4911  -22.9346 N   0  0  0  0  0  0  0  0  0  0  0  0
   -5.3745   -6.5239  -22.3695 C   0  0  0  0  0  0  0  0  0  0  0  0
   -6.3700   -7.5214  -22.8834 O   0  0  0  0  0  0  0  0  0  0  0  0
   -3.3322   -5.8364  -22.5973 H   0  0  0  0  0  0  0  0  0  0  0  0
   -6.4412   -4.3918  -24.4322 C   0  0  0  0  0  0  0  0  0  0  0  0
   -6.5211   -5.0995  -25.7522 N   0  0  0  0  0  0  0  0  0  0  0  0
   -5.7001   -5.2778  -26.2656 H   0  0  0  0  0  0  0  0  0  0  0  0
   -7.8516   -5.5355  -26.2903 C   0  0  0  0  0  0  0  0  0  0  0  0
   -8.5790   -6.6822  -25.6531 C   0  0  0  0  0  0  0  0  0  0  0  0
   -9.9095   -7.1182  -26.1911 C   0  0  0  0  0  0  0  0  0  0  0  0
  -10.5127   -6.4076  -27.3664 N   0  0  0  0  0  0  0  0  0  0  0  0
   -9.7853   -5.2610  -28.0036 C   0  0  0  0  0  0  0  0  0  0  0  0
   -8.4548   -4.8249  -27.4655 N   0  0  0  0  0  0  0  0  0  0  0  0
 29 30  1  0  0  0
 30 31  1  0  0  0
 31 32  2  0  0  0
 31 28  1  0  0  0
 28  1  1  0  0  0
  1  2  1  0  0  0
  3  2  1  0  0  0
  3  4  1  0  0  0
  4  5  2  0  0  0
  4  6  1  0  0  0
  6 18  1  0  0  0
 18 19  2  0  0  0
 19 20  1  0  0  0
 20 21  2  0  0  0
 21 22  1  0  0  0
 22 23  2  0  0  0
 23 24  1  0  0  0
 24 25  2  0  0  0
 25 26  1  0  0  0
 26 27  2  0  0  0
  6  7  1  0  0  0
  7  8  1  0  0  0
  8 34  1  0  0  0
 34 35  1  0  0  0
 35 37  1  0  0  0
 37 38  2  0  0  0
 38 39  1  0  0  0
 39 40  2  0  0  0
 40 41  1  0  0  0
 41 42  2  0  0  0
  3  9  1  0  0  0
  9 10  2  0  0  0
 10 11  1  0  0  0
 11 12  1  0  0  0
 11 13  2  0  0  0
 13 14  1  0  0  0
 14 15  2  0  0  0
 15 16  1  0  0  0
 16 17  2  0  0  0
 16  1  1  0  0  0
  8  3  1  0  0  0
 42 37  1  0  0  0
 15  9  1  0  0  0
 27 18  1  0  0  0
 27 22  1  0  0  0
 30 33  1  0  0  0
 35 36  1  0  0  0
M  END
> <minimizedAffinity>
-7.43784

> <CNNscore>
0.2572940886

> <CNNaffinity>
6.5759134293

> <CNN_VS>
1.6919436455

> <CNNaffinity_variance>
0.0930462927

$$$$



 42 47  0  0  0  0  0  0  0  0999 V2000
   -6.6624   -1.7967  -22.2462 N   0  0  0  0  0  0  0  0  0  0  0  0
   -7.7836   -1.1733  -23.0235 C   0  0  0  0  0  0  0  0  0  0  0  0
   -7.8448    0.3164  -23.1877 C   0  0  0  0  0  0  0  0  0  0  0  0
   -8.0374    1.7833  -23.4350 C   0  0  0  0  0  0  0  0  0  0  0  0
   -7.5081    2.8473  -23.1816 O   0  0  0  0  0  0  0  0  0  0  0  0
   -9.2819    1.9559  -24.2544 N   0  0  0  0  0  0  0  0  0  0  0  0
   -9.8585    0.5957  -24.5136 C   0  0  0  0  0  0  0  0  0  0  0  0
   -8.9704   -0.4176  -23.8544 C   0  0  0  0  0  0  0  0  0  0  0  0
   -6.7849    1.1828  -22.5746 C   0  0  0  0  0  0  0  0  0  0  0  0
   -6.8461    2.6725  -22.7387 C   0  0  0  0  0  0  0  0  0  0  0  0
   -5.7861    3.5388  -22.1256 C   0  0  0  0  0  0  0  0  0  0  0  0
   -5.8473    5.0285  -22.2897 Cl  0  0  0  0  0  0  0  0  0  0  0  0
   -4.6650    2.9153  -21.3482 C   0  0  0  0  0  0  0  0  0  0  0  0
   -4.6037    1.4256  -21.1840 C   0  0  0  0  0  0  0  0  0  0  0  0
   -5.6637    0.5594  -21.7972 C   0  0  0  0  0  0  0  0  0  0  0  0
   -5.6025   -0.9304  -21.6330 C   0  0  0  0  0  0  0  0  0  0  0  0
   -4.4813   -1.5538  -20.8556 O   0  0  0  0  0  0  0  0  0  0  0  0
   -9.8500    3.2598  -24.7309 C   0  0  0  0  0  0  0  0  0  0  0  0
   -9.1530    4.0311  -25.8122 C   0  0  0  0  0  0  0  0  0  0  0  0
   -9.7211    5.3351  -26.2888 N   0  0  0  0  0  0  0  0  0  0  0  0
  -10.9862    5.8676  -25.6839 C   0  0  0  0  0  0  0  0  0  0  0  0
  -11.6832    5.0963  -24.6026 C   0  0  0  0  0  0  0  0  0  0  0  0
  -12.9484    5.6290  -23.9977 C   0  0  0  0  0  0  0  0  0  0  0  0
  -13.6453    4.8576  -22.9164 C   0  0  0  0  0  0  0  0  0  0  0  0
  -13.0772    3.5537  -22.4399 C   0  0  0  0  0  0  0  0  0  0  0  0
  -11.8121    3.0211  -23.0447 C   0  0  0  0  0  0  0  0  0  0  0  0
  -11.1151    3.7924  -24.1261 C   0  0  0  0  0  0  0  0  0  0  0  0
   -6.6012   -3.2865  -22.0820 C   0  0  0  0  0  0  0  0  0  0  0  0
   -5.9641   -5.0977  -25.5552 C   0  0  0  0  0  0  0  0  0  0  0  0
   -5.7706   -4.2037  -24.3665 N   0  0  0  0  0  0  0  0  0  0  0  0
   -6.7947   -4.1806  -23.2708 C   0  0  0  0  0  0  0  0  0  0  0  0
   -8.0124   -5.0516  -23.3638 O   0  0  0  0  0  0  0  0  0  0  0  0
   -4.9714   -3.6320  -24.3054 H   0  0  0  0  0  0  0  0  0  0  0  0
   -9.1723   -1.9039  -23.8607 C   0  0  0  0  0  0  0  0  0  0  0  0
  -10.1346   -2.5342  -22.8981 N   0  0  0  0  0  0  0  0  0  0  0  0
   -9.8247   -3.2357  -22.2807 H   0  0  0  0  0  0  0  0  0  0  0  0
  -11.5689   -2.0959  -22.8761 C   0  0  0  0  0  0  0  0  0  0  0  0
  -11.9856   -0.8561  -23.6105 C   0  0  0  0  0  0  0  0  0  0  0  0
  -13.4199   -0.4177  -23.5886 C   0  0  0  0  0  0  0  0  0  0  0  0
  -14.4376   -1.2191  -22.8322 N   0  0  0  0  0  0  0  0  0  0  0  0
  -14.0209   -2.4589  -22.0978 C   0  0  0  0  0  0  0  0  0  0  0  0
  -12.5866   -2.8972  -22.1197 N   0  0  0  0  0  0  0  0  0  0  0  0
 29 30  1  0  0  0
 30 31  1  0  0  0
 31 32  2  0  0  0
 31 28  1  0  0  0
 28  1  1  0  0  0
  1  2  1  0  0  0
  3  2  1  0  0  0
  3  4  1  0  0  0
  4  5  2  0  0  0
  4  6  1  0  0  0
  6 18  1  0  0  0
 18 19  2  0  0  0
 19 20  1  0  0  0
 20 21  2  0  0  0
 21 22  1  0  0  0
 22 23  2  0  0  0
 23 24  1  0  0  0
 24 25  2  0  0  0
 25 26  1  0  0  0
 26 27  2  0  0  0
  6  7  1  0  0  0
  7  8  1  0  0  0
  8 34  1  0  0  0
 34 35  1  0  0  0
 35 37  1  0  0  0
 37 38  2  0  0  0
 38 39  1  0  0  0
 39 40  2  0  0  0
 40 41  1  0  0  0
 41 42  2  0  0  0
  3  9  1  0  0  0
  9 10  2  0  0  0
 10 11  1  0  0  0
 11 12  1  0  0  0
 11 13  2  0  0  0
 13 14  1  0  0  0
 14 15  2  0  0  0
 15 16  1  0  0  0
 16 17  2  0  0  0
 16  1  1  0  0  0
  8  3  1  0  0  0
 42 37  1  0  0  0
 15  9  1  0  0  0
 27 18  1  0  0  0
 27 22  1  0  0  0
 30 33  1  0  0  0
 35 36  1  0  0  0
M  END
> <minimizedAffinity>
-8.03103

> <CNNscore>
0.2569980025

> <CNNaffinity>
6.8535094261

> <CNN_VS>
1.7613382339

> <CNNaffinity_variance>
0.1839464009

$$$$



 42 47  0  0  0  0  0  0  0  0999 V2000
   -7.8581   -3.4415  -25.1660 N   0  0  0  0  0  0  0  0  0  0  0  0
   -8.3414   -2.3615  -24.2441 C   0  0  0  0  0  0  0  0  0  0  0  0
   -8.3285   -0.9305  -24.6935 C   0  0  0  0  0  0  0  0  0  0  0  0
   -8.3749    0.5367  -25.0021 C   0  0  0  0  0  0  0  0  0  0  0  0
   -8.1101    1.3071  -25.9036 O   0  0  0  0  0  0  0  0  0  0  0  0
   -8.9254    1.2460  -23.8005 N   0  0  0  0  0  0  0  0  0  0  0  0
   -9.2192    0.2172  -22.7492 C   0  0  0  0  0  0  0  0  0  0  0  0
   -8.8504   -1.1280  -23.3012 C   0  0  0  0  0  0  0  0  0  0  0  0
   -7.8324   -0.5795  -26.0649 C   0  0  0  0  0  0  0  0  0  0  0  0
   -7.8195    0.8515  -26.5144 C   0  0  0  0  0  0  0  0  0  0  0  0
   -7.3234    1.2025  -27.8857 C   0  0  0  0  0  0  0  0  0  0  0  0
   -7.3105    2.6335  -28.3352 Cl  0  0  0  0  0  0  0  0  0  0  0  0
   -6.8401    0.1224  -28.8076 C   0  0  0  0  0  0  0  0  0  0  0  0
   -6.8529   -1.3086  -28.3582 C   0  0  0  0  0  0  0  0  0  0  0  0
   -7.3491   -1.6595  -26.9868 C   0  0  0  0  0  0  0  0  0  0  0  0
   -7.3619   -3.0906  -26.5373 C   0  0  0  0  0  0  0  0  0  0  0  0
   -6.8786   -4.1706  -27.4592 O   0  0  0  0  0  0  0  0  0  0  0  0
   -9.1436    2.7245  -23.6726 C   0  0  0  0  0  0  0  0  0  0  0  0
   -7.9786    3.6358  -23.4232 C   0  0  0  0  0  0  0  0  0  0  0  0
   -8.1968    5.1144  -23.2954 N   0  0  0  0  0  0  0  0  0  0  0  0
   -9.5801    5.6815  -23.4168 C   0  0  0  0  0  0  0  0  0  0  0  0
  -10.7452    4.7702  -23.6662 C   0  0  0  0  0  0  0  0  0  0  0  0
  -12.1286    5.3374  -23.7876 C   0  0  0  0  0  0  0  0  0  0  0  0
  -13.2935    4.4260  -24.0369 C   0  0  0  0  0  0  0  0  0  0  0  0
  -13.0753    2.9474  -24.1648 C   0  0  0  0  0  0  0  0  0  0  0  0
  -11.6920    2.3803  -24.0434 C   0  0  0  0  0  0  0  0  0  0  0  0
  -10.5269    3.2916  -23.7940 C   0  0  0  0  0  0  0  0  0  0  0  0
   -7.8709   -4.8726  -24.7165 C   0  0  0  0  0  0  0  0  0  0  0  0
   -6.0500   -7.1987  -22.0663 C   0  0  0  0  0  0  0  0  0  0  0  0
   -6.9365   -6.7586  -23.1934 N   0  0  0  0  0  0  0  0  0  0  0  0
   -6.9844   -5.3126  -23.5893 C   0  0  0  0  0  0  0  0  0  0  0  0
   -6.1457   -4.3066  -22.8581 O   0  0  0  0  0  0  0  0  0  0  0  0
   -7.4870   -7.4189  -23.6733 H   0  0  0  0  0  0  0  0  0  0  0  0
   -8.9805   -2.4402  -22.5862 C   0  0  0  0  0  0  0  0  0  0  0  0
  -10.2872   -3.1765  -22.6019 N   0  0  0  0  0  0  0  0  0  0  0  0
  -10.3039   -4.1523  -22.4724 H   0  0  0  0  0  0  0  0  0  0  0  0
  -11.5684   -2.4262  -22.8149 C   0  0  0  0  0  0  0  0  0  0  0  0
  -11.6681   -1.4084  -23.9122 C   0  0  0  0  0  0  0  0  0  0  0  0
  -12.9493   -0.6581  -24.1252 C   0  0  0  0  0  0  0  0  0  0  0  0
  -14.1310   -0.9255  -23.2408 N   0  0  0  0  0  0  0  0  0  0  0  0
  -14.0314   -1.9433  -22.1434 C   0  0  0  0  0  0  0  0  0  0  0  0
  -12.7501   -2.6936  -21.9305 N   0  0  0  0  0  0  0  0  0  0  0  0
 29 30  1  0  0  0
 30 31  1  0  0  0
 31 32  2  0  0  0
 31 28  1  0  0  0
 28  1  1  0  0  0
  1  2  1  0  0  0
  3  2  1  0  0  0
  3  4  1  0  0  0
  4  5  2  0  0  0
  4  6  1  0  0  0
  6 18  1  0  0  0
 18 19  2  0  0  0
 19 20  1  0  0  0
 20 21  2  0  0  0
 21 22  1  0  0  0
 22 23  2  0  0  0
 23 24  1  0  0  0
 24 25  2  0  0  0
 25 26  1  0  0  0
 26 27  2  0  0  0
  6  7  1  0  0  0
  7  8  1  0  0  0
  8 34  1  0  0  0
 34 35  1  0  0  0
 35 37  1  0  0  0
 37 38  2  0  0  0
 38 39  1  0  0  0
 39 40  2  0  0  0
 40 41  1  0  0  0
 41 42  2  0  0  0
  3  9  1  0  0  0
  9 10  2  0  0  0
 10 11  1  0  0  0
 11 12  1  0  0  0
 11 13  2  0  0  0
 13 14  1  0  0  0
 14 15  2  0  0  0
 15 16  1  0  0  0
 16 17  2  0  0  0
 16  1  1  0  0  0
  8  3  1  0  0  0
 42 37  1  0  0  0
 15  9  1  0  0  0
 27 18  1  0  0  0
 27 22  1  0  0  0
 30 33  1  0  0  0
 35 36  1  0  0  0
M  END
> <minimizedAffinity>
-7.31205

> <CNNscore>
0.2022777945

> <CNNaffinity>
6.3557338715

> <CNN_VS>
1.2856237888

> <CNNaffinity_variance>
0.5792778134

$$$$



 42 47  0  0  0  0  0  0  0  0999 V2000
   -9.4837   -2.2785  -23.6559 N   0  0  0  0  0  0  0  0  0  0  0  0
   -8.1174   -2.3187  -23.0382 C   0  0  0  0  0  0  0  0  0  0  0  0
   -7.4034   -1.0403  -22.7130 C   0  0  0  0  0  0  0  0  0  0  0  0
   -6.5714    0.1492  -22.3347 C   0  0  0  0  0  0  0  0  0  0  0  0
   -6.6198    1.3631  -22.3543 O   0  0  0  0  0  0  0  0  0  0  0  0
   -5.2830   -0.3524  -21.7530 N   0  0  0  0  0  0  0  0  0  0  0  0
   -5.3186   -1.8519  -21.7718 C   0  0  0  0  0  0  0  0  0  0  0  0
   -6.6291   -2.2770  -22.3652 C   0  0  0  0  0  0  0  0  0  0  0  0
   -8.0557    0.2785  -23.0056 C   0  0  0  0  0  0  0  0  0  0  0  0
   -7.3417    1.5569  -22.6804 C   0  0  0  0  0  0  0  0  0  0  0  0
   -7.9940    2.8755  -22.9730 C   0  0  0  0  0  0  0  0  0  0  0  0
   -7.2800    4.1541  -22.6478 Cl  0  0  0  0  0  0  0  0  0  0  0  0
   -9.3603    2.9157  -23.5907 C   0  0  0  0  0  0  0  0  0  0  0  0
  -10.0743    1.6373  -23.9159 C   0  0  0  0  0  0  0  0  0  0  0  0
   -9.4220    0.3187  -23.6233 C   0  0  0  0  0  0  0  0  0  0  0  0
  -10.1360   -0.9599  -23.9485 C   0  0  0  0  0  0  0  0  0  0  0  0
  -11.5023   -0.9196  -24.5662 O   0  0  0  0  0  0  0  0  0  0  0  0
   -4.1567    0.4964  -21.2422 C   0  0  0  0  0  0  0  0  0  0  0  0
   -4.1655    0.9786  -19.8218 C   0  0  0  0  0  0  0  0  0  0  0  0
   -3.0392    1.8275  -19.3110 N   0  0  0  0  0  0  0  0  0  0  0  0
   -1.9042    2.1941  -20.2205 C   0  0  0  0  0  0  0  0  0  0  0  0
   -1.8954    1.7119  -21.6409 C   0  0  0  0  0  0  0  0  0  0  0  0
   -0.7603    2.0786  -22.5505 C   0  0  0  0  0  0  0  0  0  0  0  0
   -0.7517    1.5963  -23.9708 C   0  0  0  0  0  0  0  0  0  0  0  0
   -1.8780    0.7475  -24.4816 C   0  0  0  0  0  0  0  0  0  0  0  0
   -3.0130    0.3809  -23.5721 C   0  0  0  0  0  0  0  0  0  0  0  0
   -3.0217    0.8631  -22.1517 C   0  0  0  0  0  0  0  0  0  0  0  0
  -10.1977   -3.5570  -23.9811 C   0  0  0  0  0  0  0  0  0  0  0  0
  -10.3704   -6.1334  -26.9948 C   0  0  0  0  0  0  0  0  0  0  0  0
  -10.4359   -5.5701  -25.6062 N   0  0  0  0  0  0  0  0  0  0  0  0
  -10.1322   -4.1203  -25.3698 C   0  0  0  0  0  0  0  0  0  0  0  0
   -9.7629   -3.2338  -26.5221 O   0  0  0  0  0  0  0  0  0  0  0  0
  -10.6782   -6.1519  -24.8499 H   0  0  0  0  0  0  0  0  0  0  0  0
   -7.0851   -3.6906  -22.5739 C   0  0  0  0  0  0  0  0  0  0  0  0
   -6.0835   -4.8070  -22.5915 N   0  0  0  0  0  0  0  0  0  0  0  0
   -5.4847   -4.9432  -21.8221 H   0  0  0  0  0  0  0  0  0  0  0  0
   -5.9942   -5.7159  -23.7815 C   0  0  0  0  0  0  0  0  0  0  0  0
   -4.8855   -6.7219  -23.8753 C   0  0  0  0  0  0  0  0  0  0  0  0
   -4.7962   -7.6307  -25.0652 C   0  0  0  0  0  0  0  0  0  0  0  0
   -5.8156   -7.5337  -26.1614 N   0  0  0  0  0  0  0  0  0  0  0  0
   -6.9243   -6.5277  -26.0675 C   0  0  0  0  0  0  0  0  0  0  0  0
   -7.0136   -5.6188  -24.8776 N   0  0  0  0  0  0  0  0  0  0  0  0
 29 30  1  0  0  0
 30 31  1  0  0  0
 31 32  2  0  0  0
 31 28  1  0  0  0
 28  1  1  0  0  0
  1  2  1  0  0  0
  3  2  1  0  0  0
  3  4  1  0  0  0
  4  5  2  0  0  0
  4  6  1  0  0  0
  6 18  1  0  0  0
 18 19  2  0  0  0
 19 20  1  0  0  0
 20 21  2  0  0  0
 21 22  1  0  0  0
 22 23  2  0  0  0
 23 24  1  0  0  0
 24 25  2  0  0  0
 25 26  1  0  0  0
 26 27  2  0  0  0
  6  7  1  0  0  0
  7  8  1  0  0  0
  8 34  1  0  0  0
 34 35  1  0  0  0
 35 37  1  0  0  0
 37 38  2  0  0  0
 38 39  1  0  0  0
 39 40  2  0  0  0
 40 41  1  0  0  0
 41 42  2  0  0  0
  3  9  1  0  0  0
  9 10  2  0  0  0
 10 11  1  0  0  0
 11 12  1  0  0  0
 11 13  2  0  0  0
 13 14  1  0  0  0
 14 15  2  0  0  0
 15 16  1  0  0  0
 16 17  2  0  0  0
 16  1  1  0  0  0
  8  3  1  0  0  0
 42 37  1  0  0  0
 15  9  1  0  0  0
 27 18  1  0  0  0
 27 22  1  0  0  0
 30 33  1  0  0  0
 35 36  1  0  0  0
M  END
> <minimizedAffinity>
-8.07454

> <CNNscore>
0.1518098712

> <CNNaffinity>
6.3460679054

> <CNN_VS>
0.9633957744

> <CNNaffinity_variance>
0.1570225507

$$$$



 42 47  0  0  0  0  0  0  0  0999 V2000
   -8.4398    2.4935  -24.1236 N   0  0  0  0  0  0  0  0  0  0  0  0
   -7.6071    1.2480  -24.1973 C   0  0  0  0  0  0  0  0  0  0  0  0
   -8.2471   -0.0946  -24.0036 C   0  0  0  0  0  0  0  0  0  0  0  0
   -8.7445   -1.4993  -23.8315 C   0  0  0  0  0  0  0  0  0  0  0  0
   -9.7772   -2.1007  -23.6123 O   0  0  0  0  0  0  0  0  0  0  0  0
   -7.5756   -2.4269  -23.9838 N   0  0  0  0  0  0  0  0  0  0  0  0
   -6.3558   -1.5955  -24.2500 C   0  0  0  0  0  0  0  0  0  0  0  0
   -6.7708   -0.1541  -24.2622 C   0  0  0  0  0  0  0  0  0  0  0  0
   -9.7200   -0.1919  -23.7363 C   0  0  0  0  0  0  0  0  0  0  0  0
  -10.3600   -1.5346  -23.5426 C   0  0  0  0  0  0  0  0  0  0  0  0
  -11.8327   -1.6318  -23.2753 C   0  0  0  0  0  0  0  0  0  0  0  0
  -12.4728   -2.9745  -23.0816 Cl  0  0  0  0  0  0  0  0  0  0  0  0
  -12.6655   -0.3864  -23.2016 C   0  0  0  0  0  0  0  0  0  0  0  0
  -12.0255    0.9563  -23.3953 C   0  0  0  0  0  0  0  0  0  0  0  0
  -10.5527    1.0535  -23.6626 C   0  0  0  0  0  0  0  0  0  0  0  0
   -9.9126    2.3963  -23.8563 C   0  0  0  0  0  0  0  0  0  0  0  0
  -10.7453    3.6417  -23.7827 O   0  0  0  0  0  0  0  0  0  0  0  0
   -7.6189   -3.9231  -23.8869 C   0  0  0  0  0  0  0  0  0  0  0  0
   -7.0831   -4.6115  -22.6667 C   0  0  0  0  0  0  0  0  0  0  0  0
   -7.1264   -6.1078  -22.5698 N   0  0  0  0  0  0  0  0  0  0  0  0
   -7.7056   -6.9156  -23.6931 C   0  0  0  0  0  0  0  0  0  0  0  0
   -8.2415   -6.2272  -24.9134 C   0  0  0  0  0  0  0  0  0  0  0  0
   -8.8207   -7.0351  -26.0367 C   0  0  0  0  0  0  0  0  0  0  0  0
   -9.3566   -6.3465  -27.2569 C   0  0  0  0  0  0  0  0  0  0  0  0
   -9.3132   -4.8503  -27.3538 C   0  0  0  0  0  0  0  0  0  0  0  0
   -8.7340   -4.0425  -26.2305 C   0  0  0  0  0  0  0  0  0  0  0  0
   -8.1982   -4.7309  -25.0102 C   0  0  0  0  0  0  0  0  0  0  0  0
   -7.7997    3.8362  -24.3174 C   0  0  0  0  0  0  0  0  0  0  0  0
   -6.4774    6.7329  -21.9487 C   0  0  0  0  0  0  0  0  0  0  0  0
   -7.1201    6.0339  -23.1099 N   0  0  0  0  0  0  0  0  0  0  0  0
   -7.1570    4.5351  -23.1562 C   0  0  0  0  0  0  0  0  0  0  0  0
   -6.5510    3.7352  -22.0413 O   0  0  0  0  0  0  0  0  0  0  0  0
   -7.5179    6.5589  -23.8416 H   0  0  0  0  0  0  0  0  0  0  0  0
   -5.8680    1.0214  -24.4926 C   0  0  0  0  0  0  0  0  0  0  0  0
   -4.4519    0.9876  -23.9991 N   0  0  0  0  0  0  0  0  0  0  0  0
   -3.7156    0.8107  -24.6281 H   0  0  0  0  0  0  0  0  0  0  0  0
   -4.1577    1.2234  -22.5473 C   0  0  0  0  0  0  0  0  0  0  0  0
   -4.7149    0.2955  -21.5088 C   0  0  0  0  0  0  0  0  0  0  0  0
   -4.4207    0.5312  -20.0570 C   0  0  0  0  0  0  0  0  0  0  0  0
   -3.5694    1.6950  -19.6436 N   0  0  0  0  0  0  0  0  0  0  0  0
   -3.0122    2.6229  -20.6821 C   0  0  0  0  0  0  0  0  0  0  0  0
   -3.3064    2.3871  -22.1339 N   0  0  0  0  0  0  0  0  0  0  0  0
 29 30  1  0  0  0
 30 31  1  0  0  0
 31 32  2  0  0  0
 31 28  1  0  0  0
 28  1  1  0  0  0
  1  2  1  0  0  0
  3  2  1  0  0  0
  3  4  1  0  0  0
  4  5  2  0  0  0
  4  6  1  0  0  0
  6 18  1  0  0  0
 18 19  2  0  0  0
 19 20  1  0  0  0
 20 21  2  0  0  0
 21 22  1  0  0  0
 22 23  2  0  0  0
 23 24  1  0  0  0
 24 25  2  0  0  0
 25 26  1  0  0  0
 26 27  2  0  0  0
  6  7  1  0  0  0
  7  8  1  0  0  0
  8 34  1  0  0  0
 34 35  1  0  0  0
 35 37  1  0  0  0
 37 38  2  0  0  0
 38 39  1  0  0  0
 39 40  2  0  0  0
 40 41  1  0  0  0
 41 42  2  0  0  0
  3  9  1  0  0  0
  9 10  2  0  0  0
 10 11  1  0  0  0
 11 12  1  0  0  0
 11 13  2  0  0  0
 13 14  1  0  0  0
 14 15  2  0  0  0
 15 16  1  0  0  0
 16 17  2  0  0  0
 16  1  1  0  0  0
  8  3  1  0  0  0
 42 37  1  0  0  0
 15  9  1  0  0  0
 27 18  1  0  0  0
 27 22  1  0  0  0
 30 33  1  0  0  0
 35 36  1  0  0  0
M  END
> <minimizedAffinity>
-7.80119

> <CNNscore>
0.1491235942

> <CNNaffinity>
6.5308060646

> <CNN_VS>
0.9738972783

> <CNNaffinity_variance>
0.2178048193

$$$$
