


 35 40  0  0  0  0  0  0  0  0999 V2000
   -9.6545   -2.6448  -23.6464 C   0  0  0  0  0  0  0  0  0  0  0  0
   -8.3556   -2.8379  -22.9213 C   0  0  0  0  0  0  0  0  0  0  0  0
   -8.0905   -1.7348  -21.9401 C   0  0  0  0  0  0  0  0  0  0  0  0
   -6.7782   -2.0158  -21.2701 N   0  0  0  0  0  0  0  0  0  0  0  0
   -6.2323   -3.2927  -21.8373 C   0  0  0  0  0  0  0  0  0  0  0  0
   -4.9386   -3.9466  -21.4517 O   0  0  0  0  0  0  0  0  0  0  0  0
   -7.2072   -3.8007  -22.8578 C   0  0  0  0  0  0  0  0  0  0  0  0
   -5.9969   -4.6697  -22.6847 C   0  0  0  0  0  0  0  0  0  0  0  0
   -5.8493   -5.9209  -23.4988 N   0  0  0  0  0  0  0  0  0  0  0  0
   -6.9120   -6.3031  -24.4860 C   0  0  0  0  0  0  0  0  0  0  0  0
   -6.7644   -7.5543  -25.3001 O   0  0  0  0  0  0  0  0  0  0  0  0
   -8.1223   -5.4341  -24.6592 C   0  0  0  0  0  0  0  0  0  0  0  0
   -9.1850   -5.8163  -25.6464 C   0  0  0  0  0  0  0  0  0  0  0  0
  -10.3953   -4.9473  -25.8195 C   0  0  0  0  0  0  0  0  0  0  0  0
  -10.5429   -3.6961  -25.0054 C   0  0  0  0  0  0  0  0  0  0  0  0
  -11.7532   -2.8271  -25.1786 F   0  0  0  0  0  0  0  0  0  0  0  0
   -9.4802   -3.3139  -24.0182 C   0  0  0  0  0  0  0  0  0  0  0  0
   -8.2699   -4.1829  -23.8451 C   0  0  0  0  0  0  0  0  0  0  0  0
   -6.1262   -1.1688  -20.2177 C   0  0  0  0  0  0  0  0  0  0  0  0
   -6.6278   -1.2101  -18.8048 C   0  0  0  0  0  0  0  0  0  0  0  0
   -5.9759   -0.3631  -17.7524 N   0  0  0  0  0  0  0  0  0  0  0  0
   -4.8223    0.5252  -18.1131 C   0  0  0  0  0  0  0  0  0  0  0  0
   -4.3206    0.5664  -19.5261 C   0  0  0  0  0  0  0  0  0  0  0  0
   -3.1669    1.4548  -19.8868 C   0  0  0  0  0  0  0  0  0  0  0  0
   -2.6653    1.4960  -21.2999 C   0  0  0  0  0  0  0  0  0  0  0  0
   -3.3173    0.6490  -22.3521 C   0  0  0  0  0  0  0  0  0  0  0  0
   -4.4710   -0.2393  -21.9915 C   0  0  0  0  0  0  0  0  0  0  0  0
   -4.9726   -0.2806  -20.5785 C   0  0  0  0  0  0  0  0  0  0  0  0
   -4.6390   -6.7900  -23.3256 C   0  0  0  0  0  0  0  0  0  0  0  0
   -3.4929   -6.6799  -24.2870 C   0  0  0  0  0  0  0  0  0  0  0  0
   -3.5259   -6.0013  -25.6244 N   0  0  0  0  0  0  0  0  0  0  0  0
   -2.1660   -6.1311  -26.2438 C   0  0  0  0  0  0  0  0  0  0  0  0
   -1.2924   -6.8899  -25.2892 C   0  0  0  0  0  0  0  0  0  0  0  0
   -2.1125   -7.2291  -24.0799 N   0  0  0  0  0  0  0  0  0  0  0  0
   -1.6358   -7.9847  -22.8750 C   0  0  0  0  0  0  0  0  0  0  0  0
  2  1  1  0  0  0
  2  3  1  0  0  0
  3  4  1  0  0  0
  4 19  1  0  0  0
 19 20  2  0  0  0
 20 21  1  0  0  0
 21 22  2  0  0  0
 22 23  1  0  0  0
 23 24  2  0  0  0
 24 25  1  0  0  0
 25 26  2  0  0  0
 26 27  1  0  0  0
 27 28  2  0  0  0
  4  5  1  0  0  0
  5  6  2  0  0  0
  5  7  1  0  0  0
  7  8  1  0  0  0
  8  9  1  0  0  0
  9 29  1  0  0  0
 29 30  1  0  0  0
 30 31  2  0  0  0
 31 32  1  0  0  0
 32 33  2  0  0  0
 33 34  1  0  0  0
 34 35  1  0  0  0
  9 10  1  0  0  0
 10 11  2  0  0  0
 10 12  1  0  0  0
 12 13  2  0  0  0
 13 14  1  0  0  0
 14 15  2  0  0  0
 15 16  1  0  0  0
 15 17  1  0  0  0
 17 18  2  0  0  0
  7  2  1  0  0  0
 34 30  1  0  0  0
 18 12  1  0  0  0
 28 19  1  0  0  0
 18  7  1  0  0  0
 28 23  1  0  0  0
M  END
> <minimizedAffinity>
-8.25428

> <CNNscore>
0.5099264383

> <CNNaffinity>
6.5968832970

> <CNN_VS>
3.3639252186

> <CNNaffinity_variance>
0.0866014808

$$$$



 35 40  0  0  0  0  0  0  0  0999 V2000
   -7.2609    0.2554  -21.3527 C   0  0  0  0  0  0  0  0  0  0  0  0
   -8.4866    0.1008  -22.2035 C   0  0  0  0  0  0  0  0  0  0  0  0
   -9.2489    1.3865  -22.3295 C   0  0  0  0  0  0  0  0  0  0  0  0
  -10.4489    1.1312  -23.1927 N   0  0  0  0  0  0  0  0  0  0  0  0
  -10.4281   -0.3123  -23.6000 C   0  0  0  0  0  0  0  0  0  0  0  0
  -11.4421   -0.9984  -24.4666 O   0  0  0  0  0  0  0  0  0  0  0  0
   -9.2154   -0.9491  -22.9887 C   0  0  0  0  0  0  0  0  0  0  0  0
  -10.0487   -1.8876  -23.8101 C   0  0  0  0  0  0  0  0  0  0  0  0
   -9.6371   -3.3224  -23.9580 N   0  0  0  0  0  0  0  0  0  0  0  0
   -8.3921   -3.8187  -23.2845 C   0  0  0  0  0  0  0  0  0  0  0  0
   -7.9805   -5.2535  -23.4324 O   0  0  0  0  0  0  0  0  0  0  0  0
   -7.5587   -2.8802  -22.4630 C   0  0  0  0  0  0  0  0  0  0  0  0
   -6.3137   -3.3765  -21.7895 C   0  0  0  0  0  0  0  0  0  0  0  0
   -5.4804   -2.4381  -20.9680 C   0  0  0  0  0  0  0  0  0  0  0  0
   -5.8921   -1.0032  -20.8201 C   0  0  0  0  0  0  0  0  0  0  0  0
   -5.0587   -0.0647  -19.9987 F   0  0  0  0  0  0  0  0  0  0  0  0
   -7.1371   -0.5069  -21.4937 C   0  0  0  0  0  0  0  0  0  0  0  0
   -7.9704   -1.4454  -22.3151 C   0  0  0  0  0  0  0  0  0  0  0  0
  -11.4872    2.1419  -23.5804 C   0  0  0  0  0  0  0  0  0  0  0  0
  -12.9188    1.9369  -23.1825 C   0  0  0  0  0  0  0  0  0  0  0  0
  -13.9571    2.9476  -23.5702 N   0  0  0  0  0  0  0  0  0  0  0  0
  -13.5638    4.1633  -24.3558 C   0  0  0  0  0  0  0  0  0  0  0  0
  -12.1321    4.3683  -24.7537 C   0  0  0  0  0  0  0  0  0  0  0  0
  -11.7388    5.5842  -25.5394 C   0  0  0  0  0  0  0  0  0  0  0  0
  -10.3071    5.7891  -25.9373 C   0  0  0  0  0  0  0  0  0  0  0  0
   -9.2689    4.7784  -25.5496 C   0  0  0  0  0  0  0  0  0  0  0  0
   -9.6622    3.5627  -24.7639 C   0  0  0  0  0  0  0  0  0  0  0  0
  -11.0938    3.3576  -24.3660 C   0  0  0  0  0  0  0  0  0  0  0  0
  -10.4705   -4.2609  -24.7795 C   0  0  0  0  0  0  0  0  0  0  0  0
   -9.8367   -5.0592  -25.8799 C   0  0  0  0  0  0  0  0  0  0  0  0
  -10.0859   -6.5090  -26.1736 N   0  0  0  0  0  0  0  0  0  0  0  0
   -9.2457   -6.8937  -27.3551 C   0  0  0  0  0  0  0  0  0  0  0  0
   -8.4772   -5.6817  -27.7917 C   0  0  0  0  0  0  0  0  0  0  0  0
   -8.8425   -4.5480  -26.8800 N   0  0  0  0  0  0  0  0  0  0  0  0
   -8.3075   -3.1486  -26.9552 C   0  0  0  0  0  0  0  0  0  0  0  0
  2  1  1  0  0  0
  2  3  1  0  0  0
  3  4  1  0  0  0
  4 19  1  0  0  0
 19 20  2  0  0  0
 20 21  1  0  0  0
 21 22  2  0  0  0
 22 23  1  0  0  0
 23 24  2  0  0  0
 24 25  1  0  0  0
 25 26  2  0  0  0
 26 27  1  0  0  0
 27 28  2  0  0  0
  4  5  1  0  0  0
  5  6  2  0  0  0
  5  7  1  0  0  0
  7  8  1  0  0  0
  8  9  1  0  0  0
  9 29  1  0  0  0
 29 30  1  0  0  0
 30 31  2  0  0  0
 31 32  1  0  0  0
 32 33  2  0  0  0
 33 34  1  0  0  0
 34 35  1  0  0  0
  9 10  1  0  0  0
 10 11  2  0  0  0
 10 12  1  0  0  0
 12 13  2  0  0  0
 13 14  1  0  0  0
 14 15  2  0  0  0
 15 16  1  0  0  0
 15 17  1  0  0  0
 17 18  2  0  0  0
  7  2  1  0  0  0
 34 30  1  0  0  0
 18 12  1  0  0  0
 28 19  1  0  0  0
 18  7  1  0  0  0
 28 23  1  0  0  0
M  END
> <minimizedAffinity>
-8.73953

> <CNNscore>
0.5026575327

> <CNNaffinity>
6.3559188843

> <CNN_VS>
3.1948504448

> <CNNaffinity_variance>
0.2191749513

$$$$



 35 40  0  0  0  0  0  0  0  0999 V2000
   -5.8087   -5.4700  -22.9961 C   0  0  0  0  0  0  0  0  0  0  0  0
   -6.4158   -4.1900  -22.5030 C   0  0  0  0  0  0  0  0  0  0  0  0
   -5.5570   -3.5221  -21.4703 C   0  0  0  0  0  0  0  0  0  0  0  0
   -6.2442   -2.2594  -21.0422 N   0  0  0  0  0  0  0  0  0  0  0  0
   -7.5277   -2.1469  -21.8103 C   0  0  0  0  0  0  0  0  0  0  0  0
   -8.5293   -1.0362  -21.6957 O   0  0  0  0  0  0  0  0  0  0  0  0
   -7.6337   -3.3401  -22.7131 C   0  0  0  0  0  0  0  0  0  0  0  0
   -8.7920   -2.3926  -22.8158 C   0  0  0  0  0  0  0  0  0  0  0  0
   -9.9182   -2.6845  -23.7625 N   0  0  0  0  0  0  0  0  0  0  0  0
   -9.8862   -3.9240  -24.6066 C   0  0  0  0  0  0  0  0  0  0  0  0
  -11.0125   -4.2160  -25.5533 O   0  0  0  0  0  0  0  0  0  0  0  0
   -8.7279   -4.8717  -24.5040 C   0  0  0  0  0  0  0  0  0  0  0  0
   -8.6959   -6.1112  -25.3481 C   0  0  0  0  0  0  0  0  0  0  0  0
   -7.5377   -7.0587  -25.2455 C   0  0  0  0  0  0  0  0  0  0  0  0
   -6.4114   -6.7667  -24.2987 C   0  0  0  0  0  0  0  0  0  0  0  0
   -5.2531   -7.7143  -24.1961 F   0  0  0  0  0  0  0  0  0  0  0  0
   -6.4434   -5.5272  -23.4546 C   0  0  0  0  0  0  0  0  0  0  0  0
   -7.6017   -4.5797  -23.5573 C   0  0  0  0  0  0  0  0  0  0  0  0
   -5.7370   -1.2810  -20.0246 C   0  0  0  0  0  0  0  0  0  0  0  0
   -6.2394   -1.3393  -18.6126 C   0  0  0  0  0  0  0  0  0  0  0  0
   -5.7322   -0.3609  -17.5950 N   0  0  0  0  0  0  0  0  0  0  0  0
   -4.7226    0.6759  -17.9896 C   0  0  0  0  0  0  0  0  0  0  0  0
   -4.2202    0.7343  -19.4018 C   0  0  0  0  0  0  0  0  0  0  0  0
   -3.2106    1.7711  -19.7964 C   0  0  0  0  0  0  0  0  0  0  0  0
   -2.7082    1.8294  -21.2086 C   0  0  0  0  0  0  0  0  0  0  0  0
   -3.2154    0.8510  -22.2261 C   0  0  0  0  0  0  0  0  0  0  0  0
   -4.2250   -0.1858  -21.8314 C   0  0  0  0  0  0  0  0  0  0  0  0
   -4.7274   -0.2442  -20.4194 C   0  0  0  0  0  0  0  0  0  0  0  0
  -11.0765   -1.7369  -23.8651 C   0  0  0  0  0  0  0  0  0  0  0  0
  -10.8304   -0.2686  -24.0476 C   0  0  0  0  0  0  0  0  0  0  0  0
   -9.5652    0.3569  -24.5557 N   0  0  0  0  0  0  0  0  0  0  0  0
   -9.7591    1.8441  -24.5762 C   0  0  0  0  0  0  0  0  0  0  0  0
  -11.1442    2.1378  -24.0807 C   0  0  0  0  0  0  0  0  0  0  0  0
  -11.8062    0.8321  -23.7540 N   0  0  0  0  0  0  0  0  0  0  0  0
  -13.1995    0.6578  -23.2264 C   0  0  0  0  0  0  0  0  0  0  0  0
  2  1  1  0  0  0
  2  3  1  0  0  0
  3  4  1  0  0  0
  4 19  1  0  0  0
 19 20  2  0  0  0
 20 21  1  0  0  0
 21 22  2  0  0  0
 22 23  1  0  0  0
 23 24  2  0  0  0
 24 25  1  0  0  0
 25 26  2  0  0  0
 26 27  1  0  0  0
 27 28  2  0  0  0
  4  5  1  0  0  0
  5  6  2  0  0  0
  5  7  1  0  0  0
  7  8  1  0  0  0
  8  9  1  0  0  0
  9 29  1  0  0  0
 29 30  1  0  0  0
 30 31  2  0  0  0
 31 32  1  0  0  0
 32 33  2  0  0  0
 33 34  1  0  0  0
 34 35  1  0  0  0
  9 10  1  0  0  0
 10 11  2  0  0  0
 10 12  1  0  0  0
 12 13  2  0  0  0
 13 14  1  0  0  0
 14 15  2  0  0  0
 15 16  1  0  0  0
 15 17  1  0  0  0
 17 18  2  0  0  0
  7  2  1  0  0  0
 34 30  1  0  0  0
 18 12  1  0  0  0
 28 19  1  0  0  0
 18  7  1  0  0  0
 28 23  1  0  0  0
M  END
> <minimizedAffinity>
-8.85559

> <CNNscore>
0.3353216350

> <CNNaffinity>
6.2497968674

> <CNN_VS>
2.0956921577

> <CNNaffinity_variance>
0.2756381929

$$$$



 35 40  0  0  0  0  0  0  0  0999 V2000
   -9.8910   -1.5106  -23.1302 C   0  0  0  0  0  0  0  0  0  0  0  0
   -9.1578   -0.2205  -23.3499 C   0  0  0  0  0  0  0  0  0  0  0  0
   -7.6699   -0.4101  -23.3339 C   0  0  0  0  0  0  0  0  0  0  0  0
   -7.0298    0.9274  -23.5605 N   0  0  0  0  0  0  0  0  0  0  0  0
   -8.1221    1.9436  -23.7165 C   0  0  0  0  0  0  0  0  0  0  0  0
   -7.9324    3.4115  -23.9599 O   0  0  0  0  0  0  0  0  0  0  0  0
   -9.4373    1.2342  -23.5864 C   0  0  0  0  0  0  0  0  0  0  0  0
   -9.5611    2.7094  -23.8278 C   0  0  0  0  0  0  0  0  0  0  0  0
  -10.9176    3.3433  -23.9182 N   0  0  0  0  0  0  0  0  0  0  0  0
  -12.1502    2.5020  -23.7672 C   0  0  0  0  0  0  0  0  0  0  0  0
  -13.5067    3.1358  -23.8576 O   0  0  0  0  0  0  0  0  0  0  0  0
  -12.0263    1.0266  -23.5258 C   0  0  0  0  0  0  0  0  0  0  0  0
  -13.2589    0.1853  -23.3748 C   0  0  0  0  0  0  0  0  0  0  0  0
  -13.1350   -1.2899  -23.1333 C   0  0  0  0  0  0  0  0  0  0  0  0
  -11.7786   -1.9238  -23.0429 C   0  0  0  0  0  0  0  0  0  0  0  0
  -11.6547   -3.3991  -22.8015 F   0  0  0  0  0  0  0  0  0  0  0  0
  -10.5460   -1.0825  -23.1939 C   0  0  0  0  0  0  0  0  0  0  0  0
  -10.6699    0.3928  -23.4354 C   0  0  0  0  0  0  0  0  0  0  0  0
   -5.5561    1.2008  -23.6205 C   0  0  0  0  0  0  0  0  0  0  0  0
   -4.8864    1.4145  -24.9455 C   0  0  0  0  0  0  0  0  0  0  0  0
   -3.4127    1.6879  -25.0055 N   0  0  0  0  0  0  0  0  0  0  0  0
   -2.6089    1.7475  -23.7405 C   0  0  0  0  0  0  0  0  0  0  0  0
   -3.2787    1.5338  -22.4155 C   0  0  0  0  0  0  0  0  0  0  0  0
   -2.4748    1.5934  -21.1504 C   0  0  0  0  0  0  0  0  0  0  0  0
   -3.1447    1.3797  -19.8254 C   0  0  0  0  0  0  0  0  0  0  0  0
   -4.6183    1.1064  -19.7655 C   0  0  0  0  0  0  0  0  0  0  0  0
   -5.4221    1.0467  -21.0305 C   0  0  0  0  0  0  0  0  0  0  0  0
   -4.7523    1.2604  -22.3555 C   0  0  0  0  0  0  0  0  0  0  0  0
  -11.0414    4.8186  -24.1596 C   0  0  0  0  0  0  0  0  0  0  0  0
  -11.8309    5.3232  -25.3310 C   0  0  0  0  0  0  0  0  0  0  0  0
  -11.4379    5.2089  -26.7741 N   0  0  0  0  0  0  0  0  0  0  0  0
  -12.5160    5.8458  -27.6000 C   0  0  0  0  0  0  0  0  0  0  0  0
  -13.5753    6.3537  -26.6672 C   0  0  0  0  0  0  0  0  0  0  0  0
  -13.1518    6.0307  -25.2649 N   0  0  0  0  0  0  0  0  0  0  0  0
  -13.9153    6.3579  -24.0159 C   0  0  0  0  0  0  0  0  0  0  0  0
  2  1  1  0  0  0
  2  3  1  0  0  0
  3  4  1  0  0  0
  4 19  1  0  0  0
 19 20  2  0  0  0
 20 21  1  0  0  0
 21 22  2  0  0  0
 22 23  1  0  0  0
 23 24  2  0  0  0
 24 25  1  0  0  0
 25 26  2  0  0  0
 26 27  1  0  0  0
 27 28  2  0  0  0
  4  5  1  0  0  0
  5  6  2  0  0  0
  5  7  1  0  0  0
  7  8  1  0  0  0
  8  9  1  0  0  0
  9 29  1  0  0  0
 29 30  1  0  0  0
 30 31  2  0  0  0
 31 32  1  0  0  0
 32 33  2  0  0  0
 33 34  1  0  0  0
 34 35  1  0  0  0
  9 10  1  0  0  0
 10 11  2  0  0  0
 10 12  1  0  0  0
 12 13  2  0  0  0
 13 14  1  0  0  0
 14 15  2  0  0  0
 15 16  1  0  0  0
 15 17  1  0  0  0
 17 18  2  0  0  0
  7  2  1  0  0  0
 34 30  1  0  0  0
 18 12  1  0  0  0
 28 19  1  0  0  0
 18  7  1  0  0  0
 28 23  1  0  0  0
M  END
> <minimizedAffinity>
-7.84789

> <CNNscore>
0.2892304659

> <CNNaffinity>
6.1855931282

> <CNN_VS>
1.7890620232

> <CNNaffinity_variance>
0.0516808853

$$$$



 35 40  0  0  0  0  0  0  0  0999 V2000
  -11.5658   -2.7783  -23.3156 C   0  0  0  0  0  0  0  0  0  0  0  0
  -10.2155   -2.3608  -23.8183 C   0  0  0  0  0  0  0  0  0  0  0  0
   -9.3036   -3.5346  -24.0202 C   0  0  0  0  0  0  0  0  0  0  0  0
   -7.9873   -3.0181  -24.5207 N   0  0  0  0  0  0  0  0  0  0  0  0
   -8.0856   -1.5252  -24.6280 C   0  0  0  0  0  0  0  0  0  0  0  0
   -6.9978   -0.6008  -25.0886 O   0  0  0  0  0  0  0  0  0  0  0  0
   -9.4628   -1.1189  -24.1939 C   0  0  0  0  0  0  0  0  0  0  0  0
   -8.5883    0.0293  -24.6024 C   0  0  0  0  0  0  0  0  0  0  0  0
   -9.1195    1.4312  -24.5527 N   0  0  0  0  0  0  0  0  0  0  0  0
  -10.5250    1.6849  -24.0945 C   0  0  0  0  0  0  0  0  0  0  0  0
  -11.0561    3.0869  -24.0447 O   0  0  0  0  0  0  0  0  0  0  0  0
  -11.3995    0.5367  -23.6859 C   0  0  0  0  0  0  0  0  0  0  0  0
  -12.8050    0.7904  -23.2276 C   0  0  0  0  0  0  0  0  0  0  0  0
  -13.6795   -0.3578  -22.8191 C   0  0  0  0  0  0  0  0  0  0  0  0
  -13.1483   -1.7598  -22.8689 C   0  0  0  0  0  0  0  0  0  0  0  0
  -14.0228   -2.9080  -22.4603 F   0  0  0  0  0  0  0  0  0  0  0  0
  -11.7428   -2.0135  -23.3271 C   0  0  0  0  0  0  0  0  0  0  0  0
  -10.8684   -0.8653  -23.7356 C   0  0  0  0  0  0  0  0  0  0  0  0
   -6.7838   -3.8487  -24.8551 C   0  0  0  0  0  0  0  0  0  0  0  0
   -5.8614   -3.4224  -25.9583 C   0  0  0  0  0  0  0  0  0  0  0  0
   -4.6579   -4.2530  -26.2927 N   0  0  0  0  0  0  0  0  0  0  0  0
   -4.3770   -5.5099  -25.5238 C   0  0  0  0  0  0  0  0  0  0  0  0
   -5.2995   -5.9362  -24.4205 C   0  0  0  0  0  0  0  0  0  0  0  0
   -5.0185   -7.1932  -23.6516 C   0  0  0  0  0  0  0  0  0  0  0  0
   -5.9411   -7.6194  -22.5483 C   0  0  0  0  0  0  0  0  0  0  0  0
   -7.1445   -6.7888  -22.2139 C   0  0  0  0  0  0  0  0  0  0  0  0
   -7.4254   -5.5319  -22.9829 C   0  0  0  0  0  0  0  0  0  0  0  0
   -6.5030   -5.1056  -24.0861 C   0  0  0  0  0  0  0  0  0  0  0  0
   -8.2450    2.5795  -24.9613 C   0  0  0  0  0  0  0  0  0  0  0  0
   -7.8766    3.6346  -23.9609 C   0  0  0  0  0  0  0  0  0  0  0  0
   -8.2904    5.0757  -24.0065 N   0  0  0  0  0  0  0  0  0  0  0  0
   -7.6993    5.7658  -22.8130 C   0  0  0  0  0  0  0  0  0  0  0  0
   -6.9202    4.7511  -22.0297 C   0  0  0  0  0  0  0  0  0  0  0  0
   -7.0298    3.4340  -22.7391 N   0  0  0  0  0  0  0  0  0  0  0  0
   -6.4026    2.1430  -22.3033 C   0  0  0  0  0  0  0  0  0  0  0  0
  2  1  1  0  0  0
  2  3  1  0  0  0
  3  4  1  0  0  0
  4 19  1  0  0  0
 19 20  2  0  0  0
 20 21  1  0  0  0
 21 22  2  0  0  0
 22 23  1  0  0  0
 23 24  2  0  0  0
 24 25  1  0  0  0
 25 26  2  0  0  0
 26 27  1  0  0  0
 27 28  2  0  0  0
  4  5  1  0  0  0
  5  6  2  0  0  0
  5  7  1  0  0  0
  7  8  1  0  0  0
  8  9  1  0  0  0
  9 29  1  0  0  0
 29 30  1  0  0  0
 30 31  2  0  0  0
 31 32  1  0  0  0
 32 33  2  0  0  0
 33 34  1  0  0  0
 34 35  1  0  0  0
  9 10  1  0  0  0
 10 11  2  0  0  0
 10 12  1  0  0  0
 12 13  2  0  0  0
 13 14  1  0  0  0
 14 15  2  0  0  0
 15 16  1  0  0  0
 15 17  1  0  0  0
 17 18  2  0  0  0
  7  2  1  0  0  0
 34 30  1  0  0  0
 18 12  1  0  0  0
 28 19  1  0  0  0
 18  7  1  0  0  0
 28 23  1  0  0  0
M  END
> <minimizedAffinity>
-7.77538

> <CNNscore>
0.2863259017

> <CNNaffinity>
6.4515314102

> <CNN_VS>
1.8472405672

> <CNNaffinity_variance>
0.0994219631

$$$$



 35 40  0  0  0  0  0  0  0  0999 V2000
   -9.7980   -4.1263  -25.0805 C   0  0  0  0  0  0  0  0  0  0  0  0
   -9.6915   -2.9131  -24.2046 C   0  0  0  0  0  0  0  0  0  0  0  0
  -10.7417   -1.8923  -24.5286 C   0  0  0  0  0  0  0  0  0  0  0  0
  -10.5535   -0.7248  -23.6059 N   0  0  0  0  0  0  0  0  0  0  0  0
   -9.3870   -1.0241  -22.7116 C   0  0  0  0  0  0  0  0  0  0  0  0
   -8.8479   -0.1282  -21.6360 O   0  0  0  0  0  0  0  0  0  0  0  0
   -8.8543   -2.3766  -23.0816 C   0  0  0  0  0  0  0  0  0  0  0  0
   -8.1086   -1.7126  -21.9622 C   0  0  0  0  0  0  0  0  0  0  0  0
   -6.9433   -2.4067  -21.3218 N   0  0  0  0  0  0  0  0  0  0  0  0
   -6.5236   -3.7648  -21.8006 C   0  0  0  0  0  0  0  0  0  0  0  0
   -5.3582   -4.4588  -21.1601 O   0  0  0  0  0  0  0  0  0  0  0  0
   -7.2692   -4.4289  -22.9201 C   0  0  0  0  0  0  0  0  0  0  0  0
   -6.8496   -5.7870  -23.3989 C   0  0  0  0  0  0  0  0  0  0  0  0
   -7.5952   -6.4510  -24.5183 C   0  0  0  0  0  0  0  0  0  0  0  0
   -8.7606   -5.7569  -25.1588 C   0  0  0  0  0  0  0  0  0  0  0  0
   -9.5062   -6.4210  -26.2782 F   0  0  0  0  0  0  0  0  0  0  0  0
   -9.1803   -4.3988  -24.6799 C   0  0  0  0  0  0  0  0  0  0  0  0
   -8.4346   -3.7348  -23.5605 C   0  0  0  0  0  0  0  0  0  0  0  0
  -11.3856    0.5230  -23.5816 C   0  0  0  0  0  0  0  0  0  0  0  0
  -12.8210    0.4589  -23.1512 C   0  0  0  0  0  0  0  0  0  0  0  0
  -13.6532    1.7067  -23.1270 N   0  0  0  0  0  0  0  0  0  0  0  0
  -13.0498    3.0185  -23.5331 C   0  0  0  0  0  0  0  0  0  0  0  0
  -11.6143    3.0826  -23.9636 C   0  0  0  0  0  0  0  0  0  0  0  0
  -11.0109    4.3945  -24.3698 C   0  0  0  0  0  0  0  0  0  0  0  0
   -9.5754    4.4585  -24.8002 C   0  0  0  0  0  0  0  0  0  0  0  0
   -8.7434    3.2107  -24.8244 C   0  0  0  0  0  0  0  0  0  0  0  0
   -9.3468    1.8989  -24.4182 C   0  0  0  0  0  0  0  0  0  0  0  0
  -10.7822    1.8348  -23.9878 C   0  0  0  0  0  0  0  0  0  0  0  0
   -6.1976   -1.7426  -20.2023 C   0  0  0  0  0  0  0  0  0  0  0  0
   -5.1530   -0.7098  -20.5058 C   0  0  0  0  0  0  0  0  0  0  0  0
   -4.4858   -0.4938  -21.8318 N   0  0  0  0  0  0  0  0  0  0  0  0
   -3.5126    0.6378  -21.6822 C   0  0  0  0  0  0  0  0  0  0  0  0
   -3.5783    1.1211  -20.2636 C   0  0  0  0  0  0  0  0  0  0  0  0
   -4.5922    0.2882  -19.5367 N   0  0  0  0  0  0  0  0  0  0  0  0
   -4.9775    0.4288  -18.0938 C   0  0  0  0  0  0  0  0  0  0  0  0
  2  1  1  0  0  0
  2  3  1  0  0  0
  3  4  1  0  0  0
  4 19  1  0  0  0
 19 20  2  0  0  0
 20 21  1  0  0  0
 21 22  2  0  0  0
 22 23  1  0  0  0
 23 24  2  0  0  0
 24 25  1  0  0  0
 25 26  2  0  0  0
 26 27  1  0  0  0
 27 28  2  0  0  0
  4  5  1  0  0  0
  5  6  2  0  0  0
  5  7  1  0  0  0
  7  8  1  0  0  0
  8  9  1  0  0  0
  9 29  1  0  0  0
 29 30  1  0  0  0
 30 31  2  0  0  0
 31 32  1  0  0  0
 32 33  2  0  0  0
 33 34  1  0  0  0
 34 35  1  0  0  0
  9 10  1  0  0  0
 10 11  2  0  0  0
 10 12  1  0  0  0
 12 13  2  0  0  0
 13 14  1  0  0  0
 14 15  2  0  0  0
 15 16  1  0  0  0
 15 17  1  0  0  0
 17 18  2  0  0  0
  7  2  1  0  0  0
 34 30  1  0  0  0
 18 12  1  0  0  0
 28 19  1  0  0  0
 18  7  1  0  0  0
 28 23  1  0  0  0
M  END
> <minimizedAffinity>
-8.98211

> <CNNscore>
0.2321258783

> <CNNaffinity>
6.3166418076

> <CNN_VS>
1.4662560225

> <CNNaffinity_variance>
0.1140141934

$$$$



 35 40  0  0  0  0  0  0  0  0999 V2000
  -10.3366   -3.0885  -24.5778 C   0  0  0  0  0  0  0  0  0  0  0  0
  -10.1465   -1.7666  -23.8947 C   0  0  0  0  0  0  0  0  0  0  0  0
  -11.2535   -0.8056  -24.2125 C   0  0  0  0  0  0  0  0  0  0  0  0
  -10.9753    0.4780  -23.4879 N   0  0  0  0  0  0  0  0  0  0  0  0
   -9.6963    0.3103  -22.7223 C   0  0  0  0  0  0  0  0  0  0  0  0
   -9.0441    1.3477  -21.8572 O   0  0  0  0  0  0  0  0  0  0  0  0
   -9.1841   -1.0770  -22.9737 C   0  0  0  0  0  0  0  0  0  0  0  0
   -8.3160   -0.2621  -22.0614 C   0  0  0  0  0  0  0  0  0  0  0  0
   -7.0616   -0.8555  -21.4919 N   0  0  0  0  0  0  0  0  0  0  0  0
   -6.6754   -2.2638  -21.8346 C   0  0  0  0  0  0  0  0  0  0  0  0
   -5.4210   -2.8572  -21.2650 O   0  0  0  0  0  0  0  0  0  0  0  0
   -7.5435   -3.0788  -22.7469 C   0  0  0  0  0  0  0  0  0  0  0  0
   -7.1573   -4.4870  -23.0896 C   0  0  0  0  0  0  0  0  0  0  0  0
   -8.0254   -5.3019  -24.0019 C   0  0  0  0  0  0  0  0  0  0  0  0
   -9.2798   -4.7085  -24.5714 C   0  0  0  0  0  0  0  0  0  0  0  0
  -10.1479   -5.5235  -25.4838 F   0  0  0  0  0  0  0  0  0  0  0  0
   -9.6660   -3.3002  -24.2287 C   0  0  0  0  0  0  0  0  0  0  0  0
   -8.7979   -2.4853  -23.3165 C   0  0  0  0  0  0  0  0  0  0  0  0
  -11.8266    1.7126  -23.5228 C   0  0  0  0  0  0  0  0  0  0  0  0
  -13.1697    1.7165  -22.8552 C   0  0  0  0  0  0  0  0  0  0  0  0
  -14.0210    2.9511  -22.8901 N   0  0  0  0  0  0  0  0  0  0  0  0
  -13.5290    4.1817  -23.5926 C   0  0  0  0  0  0  0  0  0  0  0  0
  -12.1857    4.1777  -24.2602 C   0  0  0  0  0  0  0  0  0  0  0  0
  -11.6937    5.4084  -24.9626 C   0  0  0  0  0  0  0  0  0  0  0  0
  -10.3504    5.4044  -25.6302 C   0  0  0  0  0  0  0  0  0  0  0  0
   -9.4993    4.1698  -25.5953 C   0  0  0  0  0  0  0  0  0  0  0  0
   -9.9913    2.9392  -24.8928 C   0  0  0  0  0  0  0  0  0  0  0  0
  -11.3344    2.9432  -24.2253 C   0  0  0  0  0  0  0  0  0  0  0  0
   -6.1935   -0.0406  -20.5795 C   0  0  0  0  0  0  0  0  0  0  0  0
   -5.3978    1.1065  -21.1282 C   0  0  0  0  0  0  0  0  0  0  0  0
   -5.7216    1.8931  -22.3637 N   0  0  0  0  0  0  0  0  0  0  0  0
   -4.6626    2.9412  -22.5368 C   0  0  0  0  0  0  0  0  0  0  0  0
   -3.6842    2.8023  -21.4082 C   0  0  0  0  0  0  0  0  0  0  0  0
   -4.1387    1.6685  -20.5377 N   0  0  0  0  0  0  0  0  0  0  0  0
   -3.4541    1.1820  -19.2949 C   0  0  0  0  0  0  0  0  0  0  0  0
  2  1  1  0  0  0
  2  3  1  0  0  0
  3  4  1  0  0  0
  4 19  1  0  0  0
 19 20  2  0  0  0
 20 21  1  0  0  0
 21 22  2  0  0  0
 22 23  1  0  0  0
 23 24  2  0  0  0
 24 25  1  0  0  0
 25 26  2  0  0  0
 26 27  1  0  0  0
 27 28  2  0  0  0
  4  5  1  0  0  0
  5  6  2  0  0  0
  5  7  1  0  0  0
  7  8  1  0  0  0
  8  9  1  0  0  0
  9 29  1  0  0  0
 29 30  1  0  0  0
 30 31  2  0  0  0
 31 32  1  0  0  0
 32 33  2  0  0  0
 33 34  1  0  0  0
 34 35  1  0  0  0
  9 10  1  0  0  0
 10 11  2  0  0  0
 10 12  1  0  0  0
 12 13  2  0  0  0
 13 14  1  0  0  0
 14 15  2  0  0  0
 15 16  1  0  0  0
 15 17  1  0  0  0
 17 18  2  0  0  0
  7  2  1  0  0  0
 34 30  1  0  0  0
 18 12  1  0  0  0
 28 19  1  0  0  0
 18  7  1  0  0  0
 28 23  1  0  0  0
M  END
> <minimizedAffinity>
-8.09478

> <CNNscore>
0.2182467282

> <CNNaffinity>
6.2276926041

> <CNN_VS>
1.3591735363

> <CNNaffinity_variance>
0.0683481097

$$$$



 35 40  0  0  0  0  0  0  0  0999 V2000
  -11.6714   -1.8666  -23.1559 C   0  0  0  0  0  0  0  0  0  0  0  0
  -10.1795   -1.8259  -23.3059 C   0  0  0  0  0  0  0  0  0  0  0  0
   -9.5597   -3.1802  -23.1282 C   0  0  0  0  0  0  0  0  0  0  0  0
   -8.0760   -3.0366  -23.2955 N   0  0  0  0  0  0  0  0  0  0  0  0
   -7.7788   -1.5934  -23.5766 C   0  0  0  0  0  0  0  0  0  0  0  0
   -6.4202   -1.0023  -23.8103 O   0  0  0  0  0  0  0  0  0  0  0  0
   -9.0789   -0.8451  -23.5831 C   0  0  0  0  0  0  0  0  0  0  0  0
   -7.8788    0.0146  -23.8486 C   0  0  0  0  0  0  0  0  0  0  0  0
   -8.0484    1.4854  -24.0898 N   0  0  0  0  0  0  0  0  0  0  0  0
   -9.4181    2.0963  -24.0656 C   0  0  0  0  0  0  0  0  0  0  0  0
   -9.5877    3.5670  -24.3068 O   0  0  0  0  0  0  0  0  0  0  0  0
  -10.6183    1.2365  -23.8001 C   0  0  0  0  0  0  0  0  0  0  0  0
  -11.9880    1.8474  -23.7758 C   0  0  0  0  0  0  0  0  0  0  0  0
  -13.1881    0.9877  -23.5103 C   0  0  0  0  0  0  0  0  0  0  0  0
  -13.0184   -0.4831  -23.2691 C   0  0  0  0  0  0  0  0  0  0  0  0
  -14.2186   -1.3429  -23.0036 F   0  0  0  0  0  0  0  0  0  0  0  0
  -11.6487   -1.0940  -23.2933 C   0  0  0  0  0  0  0  0  0  0  0  0
  -10.4487   -0.2342  -23.5588 C   0  0  0  0  0  0  0  0  0  0  0  0
   -7.0666   -4.1419  -23.1987 C   0  0  0  0  0  0  0  0  0  0  0  0
   -6.2927   -4.3417  -21.9295 C   0  0  0  0  0  0  0  0  0  0  0  0
   -5.2833   -5.4471  -21.8327 N   0  0  0  0  0  0  0  0  0  0  0  0
   -5.0480   -6.3526  -23.0051 C   0  0  0  0  0  0  0  0  0  0  0  0
   -5.8221   -6.1528  -24.2743 C   0  0  0  0  0  0  0  0  0  0  0  0
   -5.5867   -7.0584  -25.4468 C   0  0  0  0  0  0  0  0  0  0  0  0
   -6.3608   -6.8586  -26.7160 C   0  0  0  0  0  0  0  0  0  0  0  0
   -7.3701   -5.7532  -26.8127 C   0  0  0  0  0  0  0  0  0  0  0  0
   -7.6054   -4.8477  -25.6403 C   0  0  0  0  0  0  0  0  0  0  0  0
   -6.8314   -5.0474  -24.3712 C   0  0  0  0  0  0  0  0  0  0  0  0
   -6.8482    2.3452  -24.3553 C   0  0  0  0  0  0  0  0  0  0  0  0
   -6.7529    3.7102  -23.7410 C   0  0  0  0  0  0  0  0  0  0  0  0
   -6.8069    4.0231  -22.2750 N   0  0  0  0  0  0  0  0  0  0  0  0
   -6.6742    5.5084  -22.1128 C   0  0  0  0  0  0  0  0  0  0  0  0
   -6.5381    6.1135  -23.4786 C   0  0  0  0  0  0  0  0  0  0  0  0
   -6.5867    5.0022  -24.4849 N   0  0  0  0  0  0  0  0  0  0  0  0
   -6.4868    5.1558  -25.9736 C   0  0  0  0  0  0  0  0  0  0  0  0
  2  1  1  0  0  0
  2  3  1  0  0  0
  3  4  1  0  0  0
  4 19  1  0  0  0
 19 20  2  0  0  0
 20 21  1  0  0  0
 21 22  2  0  0  0
 22 23  1  0  0  0
 23 24  2  0  0  0
 24 25  1  0  0  0
 25 26  2  0  0  0
 26 27  1  0  0  0
 27 28  2  0  0  0
  4  5  1  0  0  0
  5  6  2  0  0  0
  5  7  1  0  0  0
  7  8  1  0  0  0
  8  9  1  0  0  0
  9 29  1  0  0  0
 29 30  1  0  0  0
 30 31  2  0  0  0
 31 32  1  0  0  0
 32 33  2  0  0  0
 33 34  1  0  0  0
 34 35  1  0  0  0
  9 10  1  0  0  0
 10 11  2  0  0  0
 10 12  1  0  0  0
 12 13  2  0  0  0
 13 14  1  0  0  0
 14 15  2  0  0  0
 15 16  1  0  0  0
 15 17  1  0  0  0
 17 18  2  0  0  0
  7  2  1  0  0  0
 34 30  1  0  0  0
 18 12  1  0  0  0
 28 19  1  0  0  0
 18  7  1  0  0  0
 28 23  1  0  0  0
M  END
> <minimizedAffinity>
-7.93001

> <CNNscore>
0.2105561942

> <CNNaffinity>
6.2073998451

> <CNN_VS>
1.3070064783

> <CNNaffinity_variance>
0.2067010701

$$$$



 35 40  0  0  0  0  0  0  0  0999 V2000
   -7.4649   -5.1244  -23.2340 C   0  0  0  0  0  0  0  0  0  0  0  0
   -7.1897   -3.6570  -23.0888 C   0  0  0  0  0  0  0  0  0  0  0  0
   -6.7163   -3.3079  -21.7089 C   0  0  0  0  0  0  0  0  0  0  0  0
   -6.4697   -1.8290  -21.6638 N   0  0  0  0  0  0  0  0  0  0  0  0
   -6.7906   -1.2641  -23.0158 C   0  0  0  0  0  0  0  0  0  0  0  0
   -6.6850    0.1775  -23.4166 O   0  0  0  0  0  0  0  0  0  0  0  0
   -7.2356   -2.3938  -23.8965 C   0  0  0  0  0  0  0  0  0  0  0  0
   -7.2308   -1.0563  -24.5755 C   0  0  0  0  0  0  0  0  0  0  0  0
   -7.6484   -0.9429  -26.0117 N   0  0  0  0  0  0  0  0  0  0  0  0
   -8.0708   -2.1668  -26.7690 C   0  0  0  0  0  0  0  0  0  0  0  0
   -8.4883   -2.0533  -28.2052 O   0  0  0  0  0  0  0  0  0  0  0  0
   -8.0756   -3.5044  -26.0899 C   0  0  0  0  0  0  0  0  0  0  0  0
   -8.4980   -4.7284  -26.8472 C   0  0  0  0  0  0  0  0  0  0  0  0
   -8.5028   -6.0658  -26.1681 C   0  0  0  0  0  0  0  0  0  0  0  0
   -8.0852   -6.1793  -24.7319 C   0  0  0  0  0  0  0  0  0  0  0  0
   -8.0900   -7.5169  -24.0529 F   0  0  0  0  0  0  0  0  0  0  0  0
   -7.6628   -4.9554  -23.9747 C   0  0  0  0  0  0  0  0  0  0  0  0
   -7.6580   -3.6179  -24.6537 C   0  0  0  0  0  0  0  0  0  0  0  0
   -5.9869   -1.0515  -20.4753 C   0  0  0  0  0  0  0  0  0  0  0  0
   -6.7013   -1.1690  -19.1617 C   0  0  0  0  0  0  0  0  0  0  0  0
   -6.2185   -0.3915  -17.9733 N   0  0  0  0  0  0  0  0  0  0  0  0
   -5.0212    0.5034  -18.0985 C   0  0  0  0  0  0  0  0  0  0  0  0
   -4.3068    0.6208  -19.4122 C   0  0  0  0  0  0  0  0  0  0  0  0
   -3.1094    1.5158  -19.5375 C   0  0  0  0  0  0  0  0  0  0  0  0
   -2.3951    1.6331  -20.8512 C   0  0  0  0  0  0  0  0  0  0  0  0
   -2.8779    0.8557  -22.0396 C   0  0  0  0  0  0  0  0  0  0  0  0
   -4.0752   -0.0392  -21.9143 C   0  0  0  0  0  0  0  0  0  0  0  0
   -4.7896   -0.1566  -20.6007 C   0  0  0  0  0  0  0  0  0  0  0  0
   -7.6435    0.3947  -26.6908 C   0  0  0  0  0  0  0  0  0  0  0  0
   -8.4052    1.5412  -26.0946 C   0  0  0  0  0  0  0  0  0  0  0  0
   -9.5214    1.4351  -25.0982 N   0  0  0  0  0  0  0  0  0  0  0  0
   -9.9904    2.8234  -24.7780 C   0  0  0  0  0  0  0  0  0  0  0  0
   -9.1640    3.7876  -25.5765 C   0  0  0  0  0  0  0  0  0  0  0  0
   -8.1843    2.9951  -26.3901 N   0  0  0  0  0  0  0  0  0  0  0  0
   -7.1630    3.5578  -27.3337 C   0  0  0  0  0  0  0  0  0  0  0  0
  2  1  1  0  0  0
  2  3  1  0  0  0
  3  4  1  0  0  0
  4 19  1  0  0  0
 19 20  2  0  0  0
 20 21  1  0  0  0
 21 22  2  0  0  0
 22 23  1  0  0  0
 23 24  2  0  0  0
 24 25  1  0  0  0
 25 26  2  0  0  0
 26 27  1  0  0  0
 27 28  2  0  0  0
  4  5  1  0  0  0
  5  6  2  0  0  0
  5  7  1  0  0  0
  7  8  1  0  0  0
  8  9  1  0  0  0
  9 29  1  0  0  0
 29 30  1  0  0  0
 30 31  2  0  0  0
 31 32  1  0  0  0
 32 33  2  0  0  0
 33 34  1  0  0  0
 34 35  1  0  0  0
  9 10  1  0  0  0
 10 11  2  0  0  0
 10 12  1  0  0  0
 12 13  2  0  0  0
 13 14  1  0  0  0
 14 15  2  0  0  0
 15 16  1  0  0  0
 15 17  1  0  0  0
 17 18  2  0  0  0
  7  2  1  0  0  0
 34 30  1  0  0  0
 18 12  1  0  0  0
 28 19  1  0  0  0
 18  7  1  0  0  0
 28 23  1  0  0  0
M  END
> <minimizedAffinity>
-8.35227

> <CNNscore>
0.2081034631

> <CNNaffinity>
6.1754450798

> <CNN_VS>
1.2851314545

> <CNNaffinity_variance>
0.0952878669

$$$$
