


 35 40  0  0  0  0  0  0  0  0999 V2000
    7.3293   -3.2991   23.3337 C   0  0  0  0  0  0  0  0  0  0  0  0
    7.5324   -2.0156   22.5845 C   0  0  0  0  0  0  0  0  0  0  0  0
    6.4410   -1.7696   21.5852 C   0  0  0  0  0  0  0  0  0  0  0  0
    6.7314   -0.4716   20.8918 N   0  0  0  0  0  0  0  0  0  0  0  0
    8.0022    0.0847   21.4626 C   0  0  0  0  0  0  0  0  0  0  0  0
    8.6620    1.3696   21.0581 O   0  0  0  0  0  0  0  0  0  0  0  0
    8.4972   -0.8696   22.5087 C   0  0  0  0  0  0  0  0  0  0  0  0
    9.3696    0.3361   22.3209 C   0  0  0  0  0  0  0  0  0  0  0  0
   10.6114    0.4992   23.1463 N   0  0  0  0  0  0  0  0  0  0  0  0
   10.9809   -0.5433   24.1594 C   0  0  0  0  0  0  0  0  0  0  0  0
   12.2227   -0.3802   24.9848 O   0  0  0  0  0  0  0  0  0  0  0  0
   10.1085   -1.7491   24.3473 C   0  0  0  0  0  0  0  0  0  0  0  0
   10.4780   -2.7916   25.3604 C   0  0  0  0  0  0  0  0  0  0  0  0
    9.6056   -3.9973   25.5482 C   0  0  0  0  0  0  0  0  0  0  0  0
    8.3638   -4.1604   24.7228 C   0  0  0  0  0  0  0  0  0  0  0  0
    7.4914   -5.3661   24.9107 F   0  0  0  0  0  0  0  0  0  0  0  0
    7.9943   -3.1178   23.7097 C   0  0  0  0  0  0  0  0  0  0  0  0
    8.8667   -1.9122   23.5219 C   0  0  0  0  0  0  0  0  0  0  0  0
    5.8974    0.1595   19.8165 C   0  0  0  0  0  0  0  0  0  0  0  0
    6.3138    0.0448   18.3801 C   0  0  0  0  0  0  0  0  0  0  0  0
    5.4798    0.6758   17.3048 N   0  0  0  0  0  0  0  0  0  0  0  0
    4.2294    1.4215   17.6660 C   0  0  0  0  0  0  0  0  0  0  0  0
    3.8131    1.5362   19.1025 C   0  0  0  0  0  0  0  0  0  0  0  0
    2.5626    2.2820   19.4637 C   0  0  0  0  0  0  0  0  0  0  0  0
    2.1463    2.3966   20.9002 C   0  0  0  0  0  0  0  0  0  0  0  0
    2.9803    1.7656   21.9754 C   0  0  0  0  0  0  0  0  0  0  0  0
    4.2307    1.0199   21.6142 C   0  0  0  0  0  0  0  0  0  0  0  0
    4.6470    0.9052   20.1778 C   0  0  0  0  0  0  0  0  0  0  0  0
   11.4838    1.7050   22.9584 C   0  0  0  0  0  0  0  0  0  0  0  0
   10.8751    3.0758   22.9414 C   0  0  0  0  0  0  0  0  0  0  0  0
   11.5289    4.3245   22.4282 N   0  0  0  0  0  0  0  0  0  0  0  0
   10.5636    5.4590   22.6042 C   0  0  0  0  0  0  0  0  0  0  0  0
    9.3132    4.9115   23.2262 C   0  0  0  0  0  0  0  0  0  0  0  0
    9.5058    3.4386   23.4346 N   0  0  0  0  0  0  0  0  0  0  0  0
    8.5047    2.4943   24.0314 C   0  0  0  0  0  0  0  0  0  0  0  0
  2  1  1  0  0  0
  2  3  1  0  0  0
  3  4  1  0  0  0
  4 19  1  0  0  0
 19 20  2  0  0  0
 20 21  1  0  0  0
 21 22  2  0  0  0
 22 23  1  0  0  0
 23 24  2  0  0  0
 24 25  1  0  0  0
 25 26  2  0  0  0
 26 27  1  0  0  0
 27 28  2  0  0  0
  4  5  1  0  0  0
  5  6  2  0  0  0
  5  7  1  0  0  0
  7  8  1  0  0  0
  8  9  1  0  0  0
  9 29  1  0  0  0
 29 30  1  0  0  0
 30 31  2  0  0  0
 31 32  1  0  0  0
 32 33  2  0  0  0
 33 34  1  0  0  0
 34 35  1  0  0  0
  9 10  1  0  0  0
 10 11  2  0  0  0
 10 12  1  0  0  0
 12 13  2  0  0  0
 13 14  1  0  0  0
 14 15  2  0  0  0
 15 16  1  0  0  0
 15 17  1  0  0  0
 17 18  2  0  0  0
  7  2  1  0  0  0
 34 30  1  0  0  0
 18 12  1  0  0  0
 28 19  1  0  0  0
 18  7  1  0  0  0
 28 23  1  0  0  0
M  END
> <minimizedAffinity>
-8.88072

> <CNNscore>
0.5920012593

> <CNNaffinity>
6.8039679527

> <CNN_VS>
4.0279574394

> <CNNaffinity_variance>
0.0462557971

$$$$



 35 40  0  0  0  0  0  0  0  0999 V2000
    9.2818   -0.7648   23.6474 C   0  0  0  0  0  0  0  0  0  0  0  0
    8.0977   -1.2048   22.8383 C   0  0  0  0  0  0  0  0  0  0  0  0
    7.6158   -0.1254   21.9149 C   0  0  0  0  0  0  0  0  0  0  0  0
    6.4375   -0.6578   21.1545 N   0  0  0  0  0  0  0  0  0  0  0  0
    6.1913   -2.0663   21.6079 C   0  0  0  0  0  0  0  0  0  0  0  0
    5.1090   -2.9768   21.1084 O   0  0  0  0  0  0  0  0  0  0  0  0
    7.2173   -2.4044   22.6486 C   0  0  0  0  0  0  0  0  0  0  0  0
    6.2589   -3.5194   22.3520 C   0  0  0  0  0  0  0  0  0  0  0  0
    6.3828   -4.8274   23.0758 N   0  0  0  0  0  0  0  0  0  0  0  0
    7.4651   -5.0202   24.0962 C   0  0  0  0  0  0  0  0  0  0  0  0
    7.5890   -6.3282   24.8201 O   0  0  0  0  0  0  0  0  0  0  0  0
    8.4236   -3.9051   24.3929 C   0  0  0  0  0  0  0  0  0  0  0  0
    9.5059   -4.0980   25.4133 C   0  0  0  0  0  0  0  0  0  0  0  0
   10.4643   -2.9830   25.7100 C   0  0  0  0  0  0  0  0  0  0  0  0
   10.3404   -1.6750   24.9861 C   0  0  0  0  0  0  0  0  0  0  0  0
   11.2989   -0.5599   25.2828 F   0  0  0  0  0  0  0  0  0  0  0  0
    9.2581   -1.4821   23.9657 C   0  0  0  0  0  0  0  0  0  0  0  0
    8.2997   -2.5972   23.6691 C   0  0  0  0  0  0  0  0  0  0  0  0
    5.6447    0.0873   20.1219 C   0  0  0  0  0  0  0  0  0  0  0  0
    6.0578    0.0395   18.6808 C   0  0  0  0  0  0  0  0  0  0  0  0
    5.2650    0.7847   17.6482 N   0  0  0  0  0  0  0  0  0  0  0  0
    4.0591    1.5777   18.0569 C   0  0  0  0  0  0  0  0  0  0  0  0
    3.6461    1.6255   19.4982 C   0  0  0  0  0  0  0  0  0  0  0  0
    2.4401    2.4186   19.9068 C   0  0  0  0  0  0  0  0  0  0  0  0
    2.0272    2.4663   21.3481 C   0  0  0  0  0  0  0  0  0  0  0  0
    2.8200    1.7212   22.3805 C   0  0  0  0  0  0  0  0  0  0  0  0
    4.0258    0.9282   21.9718 C   0  0  0  0  0  0  0  0  0  0  0  0
    4.4389    0.8803   20.5307 C   0  0  0  0  0  0  0  0  0  0  0  0
    5.4243   -5.9425   22.7791 C   0  0  0  0  0  0  0  0  0  0  0  0
    4.1145   -6.0189   23.5061 C   0  0  0  0  0  0  0  0  0  0  0  0
    2.8530   -6.6424   22.9867 N   0  0  0  0  0  0  0  0  0  0  0  0
    1.7950   -6.4942   24.0397 C   0  0  0  0  0  0  0  0  0  0  0  0
    2.4028   -5.7790   25.2099 C   0  0  0  0  0  0  0  0  0  0  0  0
    3.8363   -5.4853   24.8800 N   0  0  0  0  0  0  0  0  0  0  0  0
    4.8190   -4.7816   25.7683 C   0  0  0  0  0  0  0  0  0  0  0  0
  2  1  1  0  0  0
  2  3  1  0  0  0
  3  4  1  0  0  0
  4 19  1  0  0  0
 19 20  2  0  0  0
 20 21  1  0  0  0
 21 22  2  0  0  0
 22 23  1  0  0  0
 23 24  2  0  0  0
 24 25  1  0  0  0
 25 26  2  0  0  0
 26 27  1  0  0  0
 27 28  2  0  0  0
  4  5  1  0  0  0
  5  6  2  0  0  0
  5  7  1  0  0  0
  7  8  1  0  0  0
  8  9  1  0  0  0
  9 29  1  0  0  0
 29 30  1  0  0  0
 30 31  2  0  0  0
 31 32  1  0  0  0
 32 33  2  0  0  0
 33 34  1  0  0  0
 34 35  1  0  0  0
  9 10  1  0  0  0
 10 11  2  0  0  0
 10 12  1  0  0  0
 12 13  2  0  0  0
 13 14  1  0  0  0
 14 15  2  0  0  0
 15 16  1  0  0  0
 15 17  1  0  0  0
 17 18  2  0  0  0
  7  2  1  0  0  0
 34 30  1  0  0  0
 18 12  1  0  0  0
 28 19  1  0  0  0
 18  7  1  0  0  0
 28 23  1  0  0  0
M  END
> <minimizedAffinity>
-8.17197

> <CNNscore>
0.5121139884

> <CNNaffinity>
6.6133184433

> <CNN_VS>
3.3867728710

> <CNNaffinity_variance>
0.0345469862

$$$$



 35 40  0  0  0  0  0  0  0  0999 V2000
   10.9523   -3.3089   26.2945 C   0  0  0  0  0  0  0  0  0  0  0  0
    9.5696   -2.8826   25.8988 C   0  0  0  0  0  0  0  0  0  0  0  0
    8.5157   -3.7615   26.5045 C   0  0  0  0  0  0  0  0  0  0  0  0
    7.1768   -3.2582   26.0530 N   0  0  0  0  0  0  0  0  0  0  0  0
    7.4032   -2.0682   25.1682 C   0  0  0  0  0  0  0  0  0  0  0  0
    6.3377   -1.2534   24.4967 O   0  0  0  0  0  0  0  0  0  0  0  0
    8.8820   -1.8361   25.0729 C   0  0  0  0  0  0  0  0  0  0  0  0
    8.0590   -0.8564   24.2901 C   0  0  0  0  0  0  0  0  0  0  0  0
    8.7321    0.2313   23.5065 N   0  0  0  0  0  0  0  0  0  0  0  0
   10.2282    0.3392   23.5057 C   0  0  0  0  0  0  0  0  0  0  0  0
   10.9013    1.4268   22.7222 O   0  0  0  0  0  0  0  0  0  0  0  0
   11.0513   -0.6406   24.2886 C   0  0  0  0  0  0  0  0  0  0  0  0
   12.5474   -0.5326   24.2878 C   0  0  0  0  0  0  0  0  0  0  0  0
   13.3704   -1.5123   25.0706 C   0  0  0  0  0  0  0  0  0  0  0  0
   12.6973   -2.6000   25.8541 C   0  0  0  0  0  0  0  0  0  0  0  0
   13.5204   -3.5797   26.6370 F   0  0  0  0  0  0  0  0  0  0  0  0
   11.2012   -2.7079   25.8549 C   0  0  0  0  0  0  0  0  0  0  0  0
   10.3782   -1.7282   25.0721 C   0  0  0  0  0  0  0  0  0  0  0  0
    5.8452   -3.8422   26.4215 C   0  0  0  0  0  0  0  0  0  0  0  0
    5.0684   -4.6342   25.4120 C   0  0  0  0  0  0  0  0  0  0  0  0
    3.7368   -5.2182   25.7806 N   0  0  0  0  0  0  0  0  0  0  0  0
    3.1821   -5.0102   27.1586 C   0  0  0  0  0  0  0  0  0  0  0  0
    3.9590   -4.2182   28.1681 C   0  0  0  0  0  0  0  0  0  0  0  0
    3.4043   -4.0101   29.5463 C   0  0  0  0  0  0  0  0  0  0  0  0
    4.1812   -3.2181   30.5557 C   0  0  0  0  0  0  0  0  0  0  0  0
    5.5128   -2.6341   30.1871 C   0  0  0  0  0  0  0  0  0  0  0  0
    6.0674   -2.8421   28.8091 C   0  0  0  0  0  0  0  0  0  0  0  0
    5.2906   -3.6341   27.7996 C   0  0  0  0  0  0  0  0  0  0  0  0
    7.9090    1.2110   22.7237 C   0  0  0  0  0  0  0  0  0  0  0  0
    7.0749    2.2311   23.4403 C   0  0  0  0  0  0  0  0  0  0  0  0
    7.3548    2.8021   24.7988 N   0  0  0  0  0  0  0  0  0  0  0  0
    6.2672    3.7832   25.1224 C   0  0  0  0  0  0  0  0  0  0  0  0
    5.3152    3.8185   23.9637 C   0  0  0  0  0  0  0  0  0  0  0  0
    5.8143    2.8592   22.9242 N   0  0  0  0  0  0  0  0  0  0  0  0
    5.1666    2.5776   21.6009 C   0  0  0  0  0  0  0  0  0  0  0  0
  2  1  1  0  0  0
  2  3  1  0  0  0
  3  4  1  0  0  0
  4 19  1  0  0  0
 19 20  2  0  0  0
 20 21  1  0  0  0
 21 22  2  0  0  0
 22 23  1  0  0  0
 23 24  2  0  0  0
 24 25  1  0  0  0
 25 26  2  0  0  0
 26 27  1  0  0  0
 27 28  2  0  0  0
  4  5  1  0  0  0
  5  6  2  0  0  0
  5  7  1  0  0  0
  7  8  1  0  0  0
  8  9  1  0  0  0
  9 29  1  0  0  0
 29 30  1  0  0  0
 30 31  2  0  0  0
 31 32  1  0  0  0
 32 33  2  0  0  0
 33 34  1  0  0  0
 34 35  1  0  0  0
  9 10  1  0  0  0
 10 11  2  0  0  0
 10 12  1  0  0  0
 12 13  2  0  0  0
 13 14  1  0  0  0
 14 15  2  0  0  0
 15 16  1  0  0  0
 15 17  1  0  0  0
 17 18  2  0  0  0
  7  2  1  0  0  0
 34 30  1  0  0  0
 18 12  1  0  0  0
 28 19  1  0  0  0
 18  7  1  0  0  0
 28 23  1  0  0  0
M  END
> <minimizedAffinity>
-7.83215

> <CNNscore>
0.4953857958

> <CNNaffinity>
6.8213539124

> <CNN_VS>
3.3792018890

> <CNNaffinity_variance>
0.2196483910

$$$$



 35 40  0  0  0  0  0  0  0  0999 V2000
   11.0024   -3.3910   26.0071 C   0  0  0  0  0  0  0  0  0  0  0  0
    9.6283   -2.9554   25.5920 C   0  0  0  0  0  0  0  0  0  0  0  0
    8.5631   -3.8572   26.1413 C   0  0  0  0  0  0  0  0  0  0  0  0
    7.2338   -3.3426   25.6742 N   0  0  0  0  0  0  0  0  0  0  0  0
    7.4776   -2.1227   24.8361 C   0  0  0  0  0  0  0  0  0  0  0  0
    6.4261   -1.2886   24.1664 O   0  0  0  0  0  0  0  0  0  0  0  0
    8.9575   -1.8833   24.7853 C   0  0  0  0  0  0  0  0  0  0  0  0
    8.1505   -0.8799   24.0160 C   0  0  0  0  0  0  0  0  0  0  0  0
    8.8387    0.2356   23.2866 N   0  0  0  0  0  0  0  0  0  0  0  0
   10.3339    0.3476   23.3265 C   0  0  0  0  0  0  0  0  0  0  0  0
   11.0222    1.4631   22.5971 O   0  0  0  0  0  0  0  0  0  0  0  0
   11.1411   -0.6558   24.0958 C   0  0  0  0  0  0  0  0  0  0  0  0
   12.6363   -0.5437   24.1356 C   0  0  0  0  0  0  0  0  0  0  0  0
   13.4433   -1.5472   24.9049 C   0  0  0  0  0  0  0  0  0  0  0  0
   12.7551   -2.6626   25.6343 C   0  0  0  0  0  0  0  0  0  0  0  0
   13.5622   -3.6661   26.4036 F   0  0  0  0  0  0  0  0  0  0  0  0
   11.2599   -2.7747   25.5944 C   0  0  0  0  0  0  0  0  0  0  0  0
   10.4528   -1.7713   24.8252 C   0  0  0  0  0  0  0  0  0  0  0  0
    5.8957   -3.9425   25.9897 C   0  0  0  0  0  0  0  0  0  0  0  0
    5.1480   -4.7042   24.9359 C   0  0  0  0  0  0  0  0  0  0  0  0
    3.8099   -5.3042   25.2514 N   0  0  0  0  0  0  0  0  0  0  0  0
    3.2196   -5.1424   26.6208 C   0  0  0  0  0  0  0  0  0  0  0  0
    3.9673   -4.3806   27.6746 C   0  0  0  0  0  0  0  0  0  0  0  0
    3.3769   -4.2188   29.0441 C   0  0  0  0  0  0  0  0  0  0  0  0
    4.1247   -3.4571   30.0979 C   0  0  0  0  0  0  0  0  0  0  0  0
    5.4627   -2.8572   29.7824 C   0  0  0  0  0  0  0  0  0  0  0  0
    6.0531   -3.0190   28.4130 C   0  0  0  0  0  0  0  0  0  0  0  0
    5.3054   -3.7807   27.3591 C   0  0  0  0  0  0  0  0  0  0  0  0
    8.0316    1.2390   22.5173 C   0  0  0  0  0  0  0  0  0  0  0  0
    7.3007    0.8207   21.2760 C   0  0  0  0  0  0  0  0  0  0  0  0
    7.7071   -0.2809   20.3425 N   0  0  0  0  0  0  0  0  0  0  0  0
    6.6927   -0.3519   19.2399 C   0  0  0  0  0  0  0  0  0  0  0  0
    5.6594    0.7058   19.4919 C   0  0  0  0  0  0  0  0  0  0  0  0
    6.0352    1.4305   20.7503 N   0  0  0  0  0  0  0  0  0  0  0  0
    5.2782    2.5657   21.3735 C   0  0  0  0  0  0  0  0  0  0  0  0
  2  1  1  0  0  0
  2  3  1  0  0  0
  3  4  1  0  0  0
  4 19  1  0  0  0
 19 20  2  0  0  0
 20 21  1  0  0  0
 21 22  2  0  0  0
 22 23  1  0  0  0
 23 24  2  0  0  0
 24 25  1  0  0  0
 25 26  2  0  0  0
 26 27  1  0  0  0
 27 28  2  0  0  0
  4  5  1  0  0  0
  5  6  2  0  0  0
  5  7  1  0  0  0
  7  8  1  0  0  0
  8  9  1  0  0  0
  9 29  1  0  0  0
 29 30  1  0  0  0
 30 31  2  0  0  0
 31 32  1  0  0  0
 32 33  2  0  0  0
 33 34  1  0  0  0
 34 35  1  0  0  0
  9 10  1  0  0  0
 10 11  2  0  0  0
 10 12  1  0  0  0
 12 13  2  0  0  0
 13 14  1  0  0  0
 14 15  2  0  0  0
 15 16  1  0  0  0
 15 17  1  0  0  0
 17 18  2  0  0  0
  7  2  1  0  0  0
 34 30  1  0  0  0
 18 12  1  0  0  0
 28 19  1  0  0  0
 18  7  1  0  0  0
 28 23  1  0  0  0
M  END
> <minimizedAffinity>
-8.69252

> <CNNscore>
0.3884009719

> <CNNaffinity>
6.6048722267

> <CNN_VS>
2.5653388500

> <CNNaffinity_variance>
0.1462669969

$$$$



 35 40  0  0  0  0  0  0  0  0999 V2000
   10.6430    0.0400   22.8243 C   0  0  0  0  0  0  0  0  0  0  0  0
    9.2070   -0.3278   22.5949 C   0  0  0  0  0  0  0  0  0  0  0  0
    8.6624    0.2889   21.3406 C   0  0  0  0  0  0  0  0  0  0  0  0
    7.2305   -0.1348   21.1997 N   0  0  0  0  0  0  0  0  0  0  0  0
    6.8900   -1.0134   22.3668 C   0  0  0  0  0  0  0  0  0  0  0  0
    5.5612   -1.6593   22.6261 O   0  0  0  0  0  0  0  0  0  0  0  0
    8.1115   -1.1327   23.2291 C   0  0  0  0  0  0  0  0  0  0  0  0
    6.9251   -1.8927   23.7435 C   0  0  0  0  0  0  0  0  0  0  0  0
    7.0324   -2.6788   25.0165 N   0  0  0  0  0  0  0  0  0  0  0  0
    8.3261   -2.7050   25.7750 C   0  0  0  0  0  0  0  0  0  0  0  0
    8.4334   -3.4911   27.0480 O   0  0  0  0  0  0  0  0  0  0  0  0
    9.5127   -1.9450   25.2607 C   0  0  0  0  0  0  0  0  0  0  0  0
   10.8064   -1.9711   26.0192 C   0  0  0  0  0  0  0  0  0  0  0  0
   11.9929   -1.2111   25.5048 C   0  0  0  0  0  0  0  0  0  0  0  0
   11.8856   -0.4250   24.2318 C   0  0  0  0  0  0  0  0  0  0  0  0
   13.0722    0.3351   23.7174 F   0  0  0  0  0  0  0  0  0  0  0  0
   10.5919   -0.3988   23.4733 C   0  0  0  0  0  0  0  0  0  0  0  0
    9.4054   -1.1588   23.9877 C   0  0  0  0  0  0  0  0  0  0  0  0
    6.3019    0.2521   20.0870 C   0  0  0  0  0  0  0  0  0  0  0  0
    6.4211   -0.4098   18.7463 C   0  0  0  0  0  0  0  0  0  0  0  0
    5.4926   -0.0229   17.6336 N   0  0  0  0  0  0  0  0  0  0  0  0
    4.4449    1.0261   17.8616 C   0  0  0  0  0  0  0  0  0  0  0  0
    4.3257    1.6881   19.2024 C   0  0  0  0  0  0  0  0  0  0  0  0
    3.2779    2.7371   19.4304 C   0  0  0  0  0  0  0  0  0  0  0  0
    3.1588    3.3990   20.7712 C   0  0  0  0  0  0  0  0  0  0  0  0
    4.0873    3.0120   21.8838 C   0  0  0  0  0  0  0  0  0  0  0  0
    5.1350    1.9631   21.6557 C   0  0  0  0  0  0  0  0  0  0  0  0
    5.2542    1.3011   20.3151 C   0  0  0  0  0  0  0  0  0  0  0  0
    5.8458   -3.4389   25.5309 C   0  0  0  0  0  0  0  0  0  0  0  0
    5.7108   -4.9044   25.2412 C   0  0  0  0  0  0  0  0  0  0  0  0
    6.6809   -5.7422   24.4620 N   0  0  0  0  0  0  0  0  0  0  0  0
    6.1516   -7.1450   24.4190 C   0  0  0  0  0  0  0  0  0  0  0  0
    4.8543   -7.1742   25.1716 C   0  0  0  0  0  0  0  0  0  0  0  0
    4.5819   -5.7894   25.6797 N   0  0  0  0  0  0  0  0  0  0  0  0
    3.3899   -5.3644   26.4850 C   0  0  0  0  0  0  0  0  0  0  0  0
  2  1  1  0  0  0
  2  3  1  0  0  0
  3  4  1  0  0  0
  4 19  1  0  0  0
 19 20  2  0  0  0
 20 21  1  0  0  0
 21 22  2  0  0  0
 22 23  1  0  0  0
 23 24  2  0  0  0
 24 25  1  0  0  0
 25 26  2  0  0  0
 26 27  1  0  0  0
 27 28  2  0  0  0
  4  5  1  0  0  0
  5  6  2  0  0  0
  5  7  1  0  0  0
  7  8  1  0  0  0
  8  9  1  0  0  0
  9 29  1  0  0  0
 29 30  1  0  0  0
 30 31  2  0  0  0
 31 32  1  0  0  0
 32 33  2  0  0  0
 33 34  1  0  0  0
 34 35  1  0  0  0
  9 10  1  0  0  0
 10 11  2  0  0  0
 10 12  1  0  0  0
 12 13  2  0  0  0
 13 14  1  0  0  0
 14 15  2  0  0  0
 15 16  1  0  0  0
 15 17  1  0  0  0
 17 18  2  0  0  0
  7  2  1  0  0  0
 34 30  1  0  0  0
 18 12  1  0  0  0
 28 19  1  0  0  0
 18  7  1  0  0  0
 28 23  1  0  0  0
M  END
> <minimizedAffinity>
-9.60218

> <CNNscore>
0.2760307491

> <CNNaffinity>
6.5472245216

> <CNN_VS>
1.8072352409

> <CNNaffinity_variance>
0.0915800184

$$$$



 35 40  0  0  0  0  0  0  0  0999 V2000
    7.1305    0.0258   20.0105 C   0  0  0  0  0  0  0  0  0  0  0  0
    7.5226    0.0610   21.4579 C   0  0  0  0  0  0  0  0  0  0  0  0
    8.9188   -0.4428   21.6742 C   0  0  0  0  0  0  0  0  0  0  0  0
    9.2161   -0.3688   23.1426 N   0  0  0  0  0  0  0  0  0  0  0  0
    8.0035    0.1807   23.8338 C   0  0  0  0  0  0  0  0  0  0  0  0
    7.8624    0.4222   25.3075 O   0  0  0  0  0  0  0  0  0  0  0  0
    6.9569    0.4463   22.7927 C   0  0  0  0  0  0  0  0  0  0  0  0
    6.5286    0.7873   24.1891 C   0  0  0  0  0  0  0  0  0  0  0  0
    5.1571    1.3410   24.4389 N   0  0  0  0  0  0  0  0  0  0  0  0
    4.2139    1.5539   23.2921 C   0  0  0  0  0  0  0  0  0  0  0  0
    2.8424    2.1076   23.5418 O   0  0  0  0  0  0  0  0  0  0  0  0
    4.6423    1.2129   21.8955 C   0  0  0  0  0  0  0  0  0  0  0  0
    3.6991    1.4257   20.7487 C   0  0  0  0  0  0  0  0  0  0  0  0
    4.1275    1.0848   19.3522 C   0  0  0  0  0  0  0  0  0  0  0  0
    5.4990    0.5310   19.1025 C   0  0  0  0  0  0  0  0  0  0  0  0
    5.9273    0.1901   17.7059 F   0  0  0  0  0  0  0  0  0  0  0  0
    6.4421    0.3182   20.2493 C   0  0  0  0  0  0  0  0  0  0  0  0
    6.0138    0.6591   21.6458 C   0  0  0  0  0  0  0  0  0  0  0  0
   10.5003   -0.7733   23.8037 C   0  0  0  0  0  0  0  0  0  0  0  0
   11.7354    0.0562   23.6136 C   0  0  0  0  0  0  0  0  0  0  0  0
   13.0197   -0.3483   24.2747 N   0  0  0  0  0  0  0  0  0  0  0  0
   13.0687   -1.5824   25.1259 C   0  0  0  0  0  0  0  0  0  0  0  0
   11.8335   -2.4120   25.3160 C   0  0  0  0  0  0  0  0  0  0  0  0
   11.8826   -3.6461   26.1673 C   0  0  0  0  0  0  0  0  0  0  0  0
   10.6474   -4.4757   26.3573 C   0  0  0  0  0  0  0  0  0  0  0  0
    9.3632   -4.0711   25.6962 C   0  0  0  0  0  0  0  0  0  0  0  0
    9.3142   -2.8370   24.8450 C   0  0  0  0  0  0  0  0  0  0  0  0
   10.5493   -2.0075   24.6549 C   0  0  0  0  0  0  0  0  0  0  0  0
    4.7287    1.6820   25.8354 C   0  0  0  0  0  0  0  0  0  0  0  0
    4.7340    0.6258   26.9005 C   0  0  0  0  0  0  0  0  0  0  0  0
    3.9853   -0.6733   26.8576 N   0  0  0  0  0  0  0  0  0  0  0  0
    4.2775   -1.4188   28.1260 C   0  0  0  0  0  0  0  0  0  0  0  0
    5.2068   -0.5804   28.9528 C   0  0  0  0  0  0  0  0  0  0  0  0
    5.4890    0.6832   28.1953 N   0  0  0  0  0  0  0  0  0  0  0  0
    6.3712    1.8069   28.6525 C   0  0  0  0  0  0  0  0  0  0  0  0
  2  1  1  0  0  0
  2  3  1  0  0  0
  3  4  1  0  0  0
  4 19  1  0  0  0
 19 20  2  0  0  0
 20 21  1  0  0  0
 21 22  2  0  0  0
 22 23  1  0  0  0
 23 24  2  0  0  0
 24 25  1  0  0  0
 25 26  2  0  0  0
 26 27  1  0  0  0
 27 28  2  0  0  0
  4  5  1  0  0  0
  5  6  2  0  0  0
  5  7  1  0  0  0
  7  8  1  0  0  0
  8  9  1  0  0  0
  9 29  1  0  0  0
 29 30  1  0  0  0
 30 31  2  0  0  0
 31 32  1  0  0  0
 32 33  2  0  0  0
 33 34  1  0  0  0
 34 35  1  0  0  0
  9 10  1  0  0  0
 10 11  2  0  0  0
 10 12  1  0  0  0
 12 13  2  0  0  0
 13 14  1  0  0  0
 14 15  2  0  0  0
 15 16  1  0  0  0
 15 17  1  0  0  0
 17 18  2  0  0  0
  7  2  1  0  0  0
 34 30  1  0  0  0
 18 12  1  0  0  0
 28 19  1  0  0  0
 18  7  1  0  0  0
 28 23  1  0  0  0
M  END
> <minimizedAffinity>
-8.31595

> <CNNscore>
0.2721887529

> <CNNaffinity>
6.3194780350

> <CNN_VS>
1.7200908661

> <CNNaffinity_variance>
0.1653410941

$$$$



 35 40  0  0  0  0  0  0  0  0999 V2000
   10.6039   -3.7187   25.5284 C   0  0  0  0  0  0  0  0  0  0  0  0
    9.3986   -3.3896   24.6984 C   0  0  0  0  0  0  0  0  0  0  0  0
    8.3473   -4.4560   24.7869 C   0  0  0  0  0  0  0  0  0  0  0  0
    7.1900   -4.0383   23.9289 N   0  0  0  0  0  0  0  0  0  0  0  0
    7.5260   -2.7137   23.3102 C   0  0  0  0  0  0  0  0  0  0  0  0
    6.6507   -1.9281   22.3793 O   0  0  0  0  0  0  0  0  0  0  0  0
    8.8910   -2.3129   23.7858 C   0  0  0  0  0  0  0  0  0  0  0  0
    8.2534   -1.3226   22.8569 C   0  0  0  0  0  0  0  0  0  0  0  0
    8.9827   -0.0657   22.4851 N   0  0  0  0  0  0  0  0  0  0  0  0
   10.3496    0.2010   23.0422 C   0  0  0  0  0  0  0  0  0  0  0  0
   11.0789    1.4580   22.6705 O   0  0  0  0  0  0  0  0  0  0  0  0
   10.9872   -0.7892   23.9712 C   0  0  0  0  0  0  0  0  0  0  0  0
   12.3541   -0.5225   24.5284 C   0  0  0  0  0  0  0  0  0  0  0  0
   12.9917   -1.5127   25.4573 C   0  0  0  0  0  0  0  0  0  0  0  0
   12.2624   -2.7697   25.8290 C   0  0  0  0  0  0  0  0  0  0  0  0
   12.9000   -3.7599   26.7580 F   0  0  0  0  0  0  0  0  0  0  0  0
   10.8955   -3.0364   25.2719 C   0  0  0  0  0  0  0  0  0  0  0  0
   10.2579   -2.0462   24.3430 C   0  0  0  0  0  0  0  0  0  0  0  0
    5.9198   -4.8096   23.7253 C   0  0  0  0  0  0  0  0  0  0  0  0
    5.6267   -5.4339   22.3934 C   0  0  0  0  0  0  0  0  0  0  0  0
    4.3564   -6.2052   22.1898 N   0  0  0  0  0  0  0  0  0  0  0  0
    3.3792   -6.3522   23.3183 C   0  0  0  0  0  0  0  0  0  0  0  0
    3.6723   -5.7278   24.6503 C   0  0  0  0  0  0  0  0  0  0  0  0
    2.6951   -5.8748   25.7788 C   0  0  0  0  0  0  0  0  0  0  0  0
    2.9882   -5.2505   27.1108 C   0  0  0  0  0  0  0  0  0  0  0  0
    4.2585   -4.4792   27.3143 C   0  0  0  0  0  0  0  0  0  0  0  0
    5.2357   -4.3322   26.1858 C   0  0  0  0  0  0  0  0  0  0  0  0
    4.9426   -4.9565   24.8539 C   0  0  0  0  0  0  0  0  0  0  0  0
    8.3451    0.9245   21.5561 C   0  0  0  0  0  0  0  0  0  0  0  0
    7.1497    0.5271   20.7419 C   0  0  0  0  0  0  0  0  0  0  0  0
    7.1795   -0.1728   19.4155 N   0  0  0  0  0  0  0  0  0  0  0  0
    5.7628   -0.3727   18.9649 C   0  0  0  0  0  0  0  0  0  0  0  0
    4.8574    0.2036   20.0129 C   0  0  0  0  0  0  0  0  0  0  0  0
    5.7146    0.7597   21.1111 N   0  0  0  0  0  0  0  0  0  0  0  0
    5.2229    1.4306   22.3593 C   0  0  0  0  0  0  0  0  0  0  0  0
  2  1  1  0  0  0
  2  3  1  0  0  0
  3  4  1  0  0  0
  4 19  1  0  0  0
 19 20  2  0  0  0
 20 21  1  0  0  0
 21 22  2  0  0  0
 22 23  1  0  0  0
 23 24  2  0  0  0
 24 25  1  0  0  0
 25 26  2  0  0  0
 26 27  1  0  0  0
 27 28  2  0  0  0
  4  5  1  0  0  0
  5  6  2  0  0  0
  5  7  1  0  0  0
  7  8  1  0  0  0
  8  9  1  0  0  0
  9 29  1  0  0  0
 29 30  1  0  0  0
 30 31  2  0  0  0
 31 32  1  0  0  0
 32 33  2  0  0  0
 33 34  1  0  0  0
 34 35  1  0  0  0
  9 10  1  0  0  0
 10 11  2  0  0  0
 10 12  1  0  0  0
 12 13  2  0  0  0
 13 14  1  0  0  0
 14 15  2  0  0  0
 15 16  1  0  0  0
 15 17  1  0  0  0
 17 18  2  0  0  0
  7  2  1  0  0  0
 34 30  1  0  0  0
 18 12  1  0  0  0
 28 19  1  0  0  0
 18  7  1  0  0  0
 28 23  1  0  0  0
M  END
> <minimizedAffinity>
-9.39128

> <CNNscore>
0.2592565119

> <CNNaffinity>
6.4640760422

> <CNN_VS>
1.6758538485

> <CNNaffinity_variance>
0.1729345024

$$$$



 35 40  0  0  0  0  0  0  0  0999 V2000
    6.1862    0.0866   19.5574 C   0  0  0  0  0  0  0  0  0  0  0  0
    6.1992   -0.2513   21.0189 C   0  0  0  0  0  0  0  0  0  0  0  0
    7.3846   -1.0919   21.3907 C   0  0  0  0  0  0  0  0  0  0  0  0
    7.3087   -1.3753   22.8617 N   0  0  0  0  0  0  0  0  0  0  0  0
    6.0765   -0.7099   23.3990 C   0  0  0  0  0  0  0  0  0  0  0  0
    5.6116   -0.7348   24.8249 O   0  0  0  0  0  0  0  0  0  0  0  0
    5.3907   -0.0152   22.2601 C   0  0  0  0  0  0  0  0  0  0  0  0
    4.6895    0.1352   23.5775 C   0  0  0  0  0  0  0  0  0  0  0  0
    3.4184    0.9270   23.6645 N   0  0  0  0  0  0  0  0  0  0  0  0
    2.8486    1.5683   22.4341 C   0  0  0  0  0  0  0  0  0  0  0  0
    1.5776    2.3600   22.5211 O   0  0  0  0  0  0  0  0  0  0  0  0
    3.5498    1.4178   21.1166 C   0  0  0  0  0  0  0  0  0  0  0  0
    2.9800    2.0592   19.8862 C   0  0  0  0  0  0  0  0  0  0  0  0
    3.6812    1.9087   18.5687 C   0  0  0  0  0  0  0  0  0  0  0  0
    4.9522    1.1170   18.4817 C   0  0  0  0  0  0  0  0  0  0  0  0
    5.6534    0.9665   17.1642 F   0  0  0  0  0  0  0  0  0  0  0  0
    5.5221    0.4756   19.7122 C   0  0  0  0  0  0  0  0  0  0  0  0
    4.8209    0.6261   21.0296 C   0  0  0  0  0  0  0  0  0  0  0  0
    8.2924   -2.1824   23.6560 C   0  0  0  0  0  0  0  0  0  0  0  0
    7.9175   -3.5487   24.1483 C   0  0  0  0  0  0  0  0  0  0  0  0
    8.9012   -4.3559   24.9426 N   0  0  0  0  0  0  0  0  0  0  0  0
   10.2598   -3.7966   25.2445 C   0  0  0  0  0  0  0  0  0  0  0  0
   10.6348   -2.4302   24.7522 C   0  0  0  0  0  0  0  0  0  0  0  0
   11.9936   -1.8709   25.0541 C   0  0  0  0  0  0  0  0  0  0  0  0
   12.3685   -0.5045   24.5618 C   0  0  0  0  0  0  0  0  0  0  0  0
   11.3848    0.3025   23.7675 C   0  0  0  0  0  0  0  0  0  0  0  0
   10.0261   -0.2568   23.4656 C   0  0  0  0  0  0  0  0  0  0  0  0
    9.6511   -1.6231   23.9579 C   0  0  0  0  0  0  0  0  0  0  0  0
    2.7172    1.0774   24.9820 C   0  0  0  0  0  0  0  0  0  0  0  0
    1.6108    0.1357   25.3545 C   0  0  0  0  0  0  0  0  0  0  0  0
    0.2024    0.1826   24.8403 N   0  0  0  0  0  0  0  0  0  0  0  0
   -0.5604   -0.9424   25.4746 C   0  0  0  0  0  0  0  0  0  0  0  0
    0.3765   -1.6846   26.3810 C   0  0  0  0  0  0  0  0  0  0  0  0
    1.7183   -1.0183   26.3068 N   0  0  0  0  0  0  0  0  0  0  0  0
    2.9512   -1.4331   27.0537 C   0  0  0  0  0  0  0  0  0  0  0  0
  2  1  1  0  0  0
  2  3  1  0  0  0
  3  4  1  0  0  0
  4 19  1  0  0  0
 19 20  2  0  0  0
 20 21  1  0  0  0
 21 22  2  0  0  0
 22 23  1  0  0  0
 23 24  2  0  0  0
 24 25  1  0  0  0
 25 26  2  0  0  0
 26 27  1  0  0  0
 27 28  2  0  0  0
  4  5  1  0  0  0
  5  6  2  0  0  0
  5  7  1  0  0  0
  7  8  1  0  0  0
  8  9  1  0  0  0
  9 29  1  0  0  0
 29 30  1  0  0  0
 30 31  2  0  0  0
 31 32  1  0  0  0
 32 33  2  0  0  0
 33 34  1  0  0  0
 34 35  1  0  0  0
  9 10  1  0  0  0
 10 11  2  0  0  0
 10 12  1  0  0  0
 12 13  2  0  0  0
 13 14  1  0  0  0
 14 15  2  0  0  0
 15 16  1  0  0  0
 15 17  1  0  0  0
 17 18  2  0  0  0
  7  2  1  0  0  0
 34 30  1  0  0  0
 18 12  1  0  0  0
 28 19  1  0  0  0
 18  7  1  0  0  0
 28 23  1  0  0  0
M  END
> <minimizedAffinity>
-7.83292

> <CNNscore>
0.2429688722

> <CNNaffinity>
6.2197160721

> <CNN_VS>
1.5111974478

> <CNNaffinity_variance>
0.0801491961

$$$$



 35 40  0  0  0  0  0  0  0  0999 V2000
   10.6900    0.2354   22.6309 C   0  0  0  0  0  0  0  0  0  0  0  0
    9.3424   -0.3193   22.2754 C   0  0  0  0  0  0  0  0  0  0  0  0
    8.6222    0.5460   21.2841 C   0  0  0  0  0  0  0  0  0  0  0  0
    7.2941   -0.0881   20.9941 N   0  0  0  0  0  0  0  0  0  0  0  0
    7.1935   -1.3452   21.8062 C   0  0  0  0  0  0  0  0  0  0  0  0
    6.0310   -2.2930   21.8234 O   0  0  0  0  0  0  0  0  0  0  0  0
    8.4594   -1.4881   22.5981 C   0  0  0  0  0  0  0  0  0  0  0  0
    7.4721   -2.5951   22.8211 C   0  0  0  0  0  0  0  0  0  0  0  0
    7.7977   -3.7109   23.7692 N   0  0  0  0  0  0  0  0  0  0  0  0
    9.1107   -3.7197   24.4944 C   0  0  0  0  0  0  0  0  0  0  0  0
    9.4364   -4.8355   25.4425 O   0  0  0  0  0  0  0  0  0  0  0  0
   10.0981   -2.6127   24.2715 C   0  0  0  0  0  0  0  0  0  0  0  0
   11.4111   -2.6215   24.9967 C   0  0  0  0  0  0  0  0  0  0  0  0
   12.3984   -1.5145   24.7738 C   0  0  0  0  0  0  0  0  0  0  0  0
   12.0727   -0.3987   23.8256 C   0  0  0  0  0  0  0  0  0  0  0  0
   13.0601    0.7084   23.6027 F   0  0  0  0  0  0  0  0  0  0  0  0
   10.7597   -0.3899   23.1004 C   0  0  0  0  0  0  0  0  0  0  0  0
    9.7724   -1.4969   23.3234 C   0  0  0  0  0  0  0  0  0  0  0  0
    6.2500    0.4419   20.0566 C   0  0  0  0  0  0  0  0  0  0  0  0
    6.1986   -0.0448   18.6388 C   0  0  0  0  0  0  0  0  0  0  0  0
    5.1544    0.4851   17.7013 N   0  0  0  0  0  0  0  0  0  0  0  0
    4.1618    1.5019   18.1817 C   0  0  0  0  0  0  0  0  0  0  0  0
    4.2132    1.9886   19.5996 C   0  0  0  0  0  0  0  0  0  0  0  0
    3.2205    3.0054   20.0800 C   0  0  0  0  0  0  0  0  0  0  0  0
    3.2720    3.4921   21.4980 C   0  0  0  0  0  0  0  0  0  0  0  0
    4.3161    2.9621   22.4354 C   0  0  0  0  0  0  0  0  0  0  0  0
    5.3088    1.9454   21.9549 C   0  0  0  0  0  0  0  0  0  0  0  0
    5.2573    1.4586   20.5371 C   0  0  0  0  0  0  0  0  0  0  0  0
    6.8103   -4.8179   23.9921 C   0  0  0  0  0  0  0  0  0  0  0  0
    5.9169   -4.7948   25.1967 C   0  0  0  0  0  0  0  0  0  0  0  0
    5.8194   -3.6848   26.2010 N   0  0  0  0  0  0  0  0  0  0  0  0
    4.8063   -4.0815   27.2335 C   0  0  0  0  0  0  0  0  0  0  0  0
    4.2776   -5.4367   26.8674 C   0  0  0  0  0  0  0  0  0  0  0  0
    4.9640   -5.8775   25.6086 N   0  0  0  0  0  0  0  0  0  0  0  0
    4.7373   -7.1735   24.8883 C   0  0  0  0  0  0  0  0  0  0  0  0
  2  1  1  0  0  0
  2  3  1  0  0  0
  3  4  1  0  0  0
  4 19  1  0  0  0
 19 20  2  0  0  0
 20 21  1  0  0  0
 21 22  2  0  0  0
 22 23  1  0  0  0
 23 24  2  0  0  0
 24 25  1  0  0  0
 25 26  2  0  0  0
 26 27  1  0  0  0
 27 28  2  0  0  0
  4  5  1  0  0  0
  5  6  2  0  0  0
  5  7  1  0  0  0
  7  8  1  0  0  0
  8  9  1  0  0  0
  9 29  1  0  0  0
 29 30  1  0  0  0
 30 31  2  0  0  0
 31 32  1  0  0  0
 32 33  2  0  0  0
 33 34  1  0  0  0
 34 35  1  0  0  0
  9 10  1  0  0  0
 10 11  2  0  0  0
 10 12  1  0  0  0
 12 13  2  0  0  0
 13 14  1  0  0  0
 14 15  2  0  0  0
 15 16  1  0  0  0
 15 17  1  0  0  0
 17 18  2  0  0  0
  7  2  1  0  0  0
 34 30  1  0  0  0
 18 12  1  0  0  0
 28 19  1  0  0  0
 18  7  1  0  0  0
 28 23  1  0  0  0
M  END
> <minimizedAffinity>
-9.19596

> <CNNscore>
0.2412978709

> <CNNaffinity>
6.5076017380

> <CNN_VS>
1.5702704191

> <CNNaffinity_variance>
0.0449381135

$$$$
