


 34 38  0  0  0  0  0  0  0  0999 V2000
   10.3179    0.2917   23.6966 N   0  0  0  0  0  0  0  0  0  0  0  0
    8.9111   -0.1597   23.9558 C   0  0  0  0  0  0  0  0  0  0  0  0
    8.6534   -1.3332   24.8537 C   0  0  0  0  0  0  0  0  0  0  0  0
    8.2428   -2.4840   25.7238 C   0  0  0  0  0  0  0  0  0  0  0  0
    8.7381   -3.3430   26.4261 O   0  0  0  0  0  0  0  0  0  0  0  0
    6.7459   -2.5752   25.6961 N   0  0  0  0  0  0  0  0  0  0  0  0
    6.2312   -1.4807   24.8088 C   0  0  0  0  0  0  0  0  0  0  0  0
    7.4102   -0.7131   24.2882 C   0  0  0  0  0  0  0  0  0  0  0  0
    7.3554    0.4673   23.3643 C   0  0  0  0  0  0  0  0  0  0  0  0
    9.8025   -2.0554   25.4925 C   0  0  0  0  0  0  0  0  0  0  0  0
    9.5448   -3.2290   26.3905 C   0  0  0  0  0  0  0  0  0  0  0  0
   10.6939   -3.9511   27.0293 C   0  0  0  0  0  0  0  0  0  0  0  0
   10.4362   -5.1247   27.9272 F   0  0  0  0  0  0  0  0  0  0  0  0
   12.1007   -3.4997   26.7701 C   0  0  0  0  0  0  0  0  0  0  0  0
   12.3584   -2.3261   25.8722 C   0  0  0  0  0  0  0  0  0  0  0  0
   11.2093   -1.6040   25.2334 C   0  0  0  0  0  0  0  0  0  0  0  0
   11.4670   -0.4304   24.3354 C   0  0  0  0  0  0  0  0  0  0  0  0
   12.8738    0.0210   24.0763 O   0  0  0  0  0  0  0  0  0  0  0  0
    5.9103   -3.5837   26.4272 C   0  0  0  0  0  0  0  0  0  0  0  0
    5.4767   -4.8418   25.7350 C   0  0  0  0  0  0  0  0  0  0  0  0
    4.6411   -5.8504   26.4662 N   0  0  0  0  0  0  0  0  0  0  0  0
    4.2391   -5.6008   27.8895 C   0  0  0  0  0  0  0  0  0  0  0  0
    4.6726   -4.3427   28.5818 C   0  0  0  0  0  0  0  0  0  0  0  0
    4.2706   -4.0931   30.0052 C   0  0  0  0  0  0  0  0  0  0  0  0
    4.7042   -2.8349   30.6974 C   0  0  0  0  0  0  0  0  0  0  0  0
    5.5398   -1.8264   29.9662 C   0  0  0  0  0  0  0  0  0  0  0  0
    5.9418   -2.0760   28.5428 C   0  0  0  0  0  0  0  0  0  0  0  0
    5.5082   -3.3341   27.8506 C   0  0  0  0  0  0  0  0  0  0  0  0
   10.5756    1.4654   22.7987 C   0  0  0  0  0  0  0  0  0  0  0  0
    8.0784    4.5218   23.2129 C   0  0  0  0  0  0  0  0  0  0  0  0
    9.1759    3.5397   23.4971 N   0  0  0  0  0  0  0  0  0  0  0  0
    9.4780    2.4475   22.5145 C   0  0  0  0  0  0  0  0  0  0  0  0
    8.6825    2.3373   21.2475 O   0  0  0  0  0  0  0  0  0  0  0  0
    9.6980    3.6120   24.3287 H   0  0  0  0  0  0  0  0  0  0  0  0
 30 31  1  0  0  0
 31 32  1  0  0  0
 32 33  2  0  0  0
 32 29  1  0  0  0
 29  1  1  0  0  0
  1  2  1  0  0  0
  3  2  1  0  0  0
  3  4  1  0  0  0
  4  5  2  0  0  0
  4  6  1  0  0  0
  6 19  1  0  0  0
 19 20  2  0  0  0
 20 21  1  0  0  0
 21 22  2  0  0  0
 22 23  1  0  0  0
 23 24  2  0  0  0
 24 25  1  0  0  0
 25 26  2  0  0  0
 26 27  1  0  0  0
 27 28  2  0  0  0
  6  7  1  0  0  0
  7  8  1  0  0  0
  8  9  1  0  0  0
  3 10  1  0  0  0
 10 11  2  0  0  0
 11 12  1  0  0  0
 12 13  1  0  0  0
 12 14  2  0  0  0
 14 15  1  0  0  0
 15 16  2  0  0  0
 16 17  1  0  0  0
 17 18  2  0  0  0
 17  1  1  0  0  0
  8  3  1  0  0  0
 16 10  1  0  0  0
 28 19  1  0  0  0
 28 23  1  0  0  0
 31 34  1  0  0  0
M  END
> <minimizedAffinity>
-8.01961

> <CNNscore>
0.5732918978

> <CNNaffinity>
6.5483436584

> <CNN_VS>
3.7541124821

> <CNNaffinity_variance>
0.2250485420

$$$$



 34 38  0  0  0  0  0  0  0  0999 V2000
   10.7435    1.6156   22.8328 N   0  0  0  0  0  0  0  0  0  0  0  0
    9.3541    1.3206   23.3152 C   0  0  0  0  0  0  0  0  0  0  0  0
    9.1125    0.1717   24.2487 C   0  0  0  0  0  0  0  0  0  0  0  0
    8.7191   -0.9373   25.1791 C   0  0  0  0  0  0  0  0  0  0  0  0
    9.2203   -1.8550   25.7978 O   0  0  0  0  0  0  0  0  0  0  0  0
    7.2361   -0.8605   25.3908 N   0  0  0  0  0  0  0  0  0  0  0  0
    6.7130    0.2958   24.5914 C   0  0  0  0  0  0  0  0  0  0  0  0
    7.8726    0.9337   23.8855 C   0  0  0  0  0  0  0  0  0  0  0  0
    7.8044    2.1247   22.9761 C   0  0  0  0  0  0  0  0  0  0  0  0
   10.2603   -0.6823   24.6999 C   0  0  0  0  0  0  0  0  0  0  0  0
   10.0186   -1.8313   25.6335 C   0  0  0  0  0  0  0  0  0  0  0  0
   11.1663   -2.6852   26.0846 C   0  0  0  0  0  0  0  0  0  0  0  0
   10.9248   -3.8342   27.0182 F   0  0  0  0  0  0  0  0  0  0  0  0
   12.5557   -2.3901   25.6022 C   0  0  0  0  0  0  0  0  0  0  0  0
   12.7973   -1.2412   24.6686 C   0  0  0  0  0  0  0  0  0  0  0  0
   11.6496   -0.3873   24.2175 C   0  0  0  0  0  0  0  0  0  0  0  0
   11.8912    0.7617   23.2839 C   0  0  0  0  0  0  0  0  0  0  0  0
   13.2805    1.0567   22.8015 O   0  0  0  0  0  0  0  0  0  0  0  0
    6.4196   -1.7789   26.2510 C   0  0  0  0  0  0  0  0  0  0  0  0
    6.2187   -3.2081   25.8423 C   0  0  0  0  0  0  0  0  0  0  0  0
    5.4023   -4.1265   26.7025 N   0  0  0  0  0  0  0  0  0  0  0  0
    4.7867   -3.6157   27.9714 C   0  0  0  0  0  0  0  0  0  0  0  0
    4.9876   -2.1865   28.3801 C   0  0  0  0  0  0  0  0  0  0  0  0
    4.3720   -1.6757   29.6491 C   0  0  0  0  0  0  0  0  0  0  0  0
    4.5729   -0.2464   30.0577 C   0  0  0  0  0  0  0  0  0  0  0  0
    5.3894    0.6720   29.1975 C   0  0  0  0  0  0  0  0  0  0  0  0
    6.0050    0.1611   27.9286 C   0  0  0  0  0  0  0  0  0  0  0  0
    5.8041   -1.2681   27.5199 C   0  0  0  0  0  0  0  0  0  0  0  0
   10.9851    2.7646   21.8992 C   0  0  0  0  0  0  0  0  0  0  0  0
   10.7158    6.4347   23.3851 C   0  0  0  0  0  0  0  0  0  0  0  0
   10.3221    5.0944   22.8387 N   0  0  0  0  0  0  0  0  0  0  0  0
   11.3787    4.1049   22.4456 C   0  0  0  0  0  0  0  0  0  0  0  0
   12.8291    4.4558   22.5990 O   0  0  0  0  0  0  0  0  0  0  0  0
    9.3703    4.8641   22.7381 H   0  0  0  0  0  0  0  0  0  0  0  0
 30 31  1  0  0  0
 31 32  1  0  0  0
 32 33  2  0  0  0
 32 29  1  0  0  0
 29  1  1  0  0  0
  1  2  1  0  0  0
  3  2  1  0  0  0
  3  4  1  0  0  0
  4  5  2  0  0  0
  4  6  1  0  0  0
  6 19  1  0  0  0
 19 20  2  0  0  0
 20 21  1  0  0  0
 21 22  2  0  0  0
 22 23  1  0  0  0
 23 24  2  0  0  0
 24 25  1  0  0  0
 25 26  2  0  0  0
 26 27  1  0  0  0
 27 28  2  0  0  0
  6  7  1  0  0  0
  7  8  1  0  0  0
  8  9  1  0  0  0
  3 10  1  0  0  0
 10 11  2  0  0  0
 11 12  1  0  0  0
 12 13  1  0  0  0
 12 14  2  0  0  0
 14 15  1  0  0  0
 15 16  2  0  0  0
 16 17  1  0  0  0
 17 18  2  0  0  0
 17  1  1  0  0  0
  8  3  1  0  0  0
 16 10  1  0  0  0
 28 19  1  0  0  0
 28 23  1  0  0  0
 31 34  1  0  0  0
M  END
> <minimizedAffinity>
-7.87869

> <CNNscore>
0.3980706632

> <CNNaffinity>
6.4568510056

> <CNN_VS>
2.5702829361

> <CNNaffinity_variance>
0.2706035376

$$$$



 34 38  0  0  0  0  0  0  0  0999 V2000
   10.4844    0.4552   23.8135 N   0  0  0  0  0  0  0  0  0  0  0  0
    9.0862    0.0970   24.2215 C   0  0  0  0  0  0  0  0  0  0  0  0
    8.8438   -1.0901   25.1058 C   0  0  0  0  0  0  0  0  0  0  0  0
    8.4486   -2.2423   25.9812 C   0  0  0  0  0  0  0  0  0  0  0  0
    8.9537   -3.1626   26.5929 O   0  0  0  0  0  0  0  0  0  0  0  0
    6.9558   -2.2234   26.1266 N   0  0  0  0  0  0  0  0  0  0  0  0
    6.4283   -1.0594   25.3410 C   0  0  0  0  0  0  0  0  0  0  0  0
    7.5952   -0.3591   24.7102 C   0  0  0  0  0  0  0  0  0  0  0  0
    7.5256    0.8586   23.8370 C   0  0  0  0  0  0  0  0  0  0  0  0
    9.9997   -1.9191   25.5821 C   0  0  0  0  0  0  0  0  0  0  0  0
    9.7573   -3.1062   26.4664 C   0  0  0  0  0  0  0  0  0  0  0  0
   10.9132   -3.9350   26.9426 C   0  0  0  0  0  0  0  0  0  0  0  0
   10.6709   -5.1222   27.8270 F   0  0  0  0  0  0  0  0  0  0  0  0
   12.3115   -3.5768   26.5346 C   0  0  0  0  0  0  0  0  0  0  0  0
   12.5539   -2.3897   25.6503 C   0  0  0  0  0  0  0  0  0  0  0  0
   11.3980   -1.5609   25.1740 C   0  0  0  0  0  0  0  0  0  0  0  0
   11.6403   -0.3737   24.2897 C   0  0  0  0  0  0  0  0  0  0  0  0
   13.0386   -0.0155   23.8816 O   0  0  0  0  0  0  0  0  0  0  0  0
    6.1346   -3.1973   26.9184 C   0  0  0  0  0  0  0  0  0  0  0  0
    6.0197   -3.0459   28.4064 C   0  0  0  0  0  0  0  0  0  0  0  0
    5.1986   -4.0198   29.1982 N   0  0  0  0  0  0  0  0  0  0  0  0
    4.4922   -5.1452   28.5022 C   0  0  0  0  0  0  0  0  0  0  0  0
    4.6071   -5.2967   27.0142 C   0  0  0  0  0  0  0  0  0  0  0  0
    3.9007   -6.4222   26.3182 C   0  0  0  0  0  0  0  0  0  0  0  0
    4.0156   -6.5735   24.8302 C   0  0  0  0  0  0  0  0  0  0  0  0
    4.8368   -5.5996   24.0384 C   0  0  0  0  0  0  0  0  0  0  0  0
    5.5431   -4.4742   24.7344 C   0  0  0  0  0  0  0  0  0  0  0  0
    5.4283   -4.3227   26.2224 C   0  0  0  0  0  0  0  0  0  0  0  0
   10.7268    1.6423   22.9291 C   0  0  0  0  0  0  0  0  0  0  0  0
    8.1401    4.6461   23.1203 C   0  0  0  0  0  0  0  0  0  0  0  0
    9.2730    3.7269   23.4688 N   0  0  0  0  0  0  0  0  0  0  0  0
    9.5939    2.5616   22.5805 C   0  0  0  0  0  0  0  0  0  0  0  0
    8.7817    2.3155   21.3436 O   0  0  0  0  0  0  0  0  0  0  0  0
    9.8060    3.8884   24.2807 H   0  0  0  0  0  0  0  0  0  0  0  0
 30 31  1  0  0  0
 31 32  1  0  0  0
 32 33  2  0  0  0
 32 29  1  0  0  0
 29  1  1  0  0  0
  1  2  1  0  0  0
  3  2  1  0  0  0
  3  4  1  0  0  0
  4  5  2  0  0  0
  4  6  1  0  0  0
  6 19  1  0  0  0
 19 20  2  0  0  0
 20 21  1  0  0  0
 21 22  2  0  0  0
 22 23  1  0  0  0
 23 24  2  0  0  0
 24 25  1  0  0  0
 25 26  2  0  0  0
 26 27  1  0  0  0
 27 28  2  0  0  0
  6  7  1  0  0  0
  7  8  1  0  0  0
  8  9  1  0  0  0
  3 10  1  0  0  0
 10 11  2  0  0  0
 11 12  1  0  0  0
 12 13  1  0  0  0
 12 14  2  0  0  0
 14 15  1  0  0  0
 15 16  2  0  0  0
 16 17  1  0  0  0
 17 18  2  0  0  0
 17  1  1  0  0  0
  8  3  1  0  0  0
 16 10  1  0  0  0
 28 19  1  0  0  0
 28 23  1  0  0  0
 31 34  1  0  0  0
M  END
> <minimizedAffinity>
-8.51824

> <CNNscore>
0.3805572093

> <CNNaffinity>
6.3396854401

> <CNN_VS>
2.4126129150

> <CNNaffinity_variance>
0.1668150723

$$$$



 34 38  0  0  0  0  0  0  0  0999 V2000
    3.9261   -5.1552   26.2893 N   0  0  0  0  0  0  0  0  0  0  0  0
    5.1669   -5.2490   25.4517 C   0  0  0  0  0  0  0  0  0  0  0  0
    6.0974   -4.0765   25.3558 C   0  0  0  0  0  0  0  0  0  0  0  0
    7.1165   -2.9925   25.1650 C   0  0  0  0  0  0  0  0  0  0  0  0
    7.3358   -1.8494   25.5136 O   0  0  0  0  0  0  0  0  0  0  0  0
    8.1860   -3.5169   24.2532 N   0  0  0  0  0  0  0  0  0  0  0  0
    7.8278   -4.9250   23.8805 C   0  0  0  0  0  0  0  0  0  0  0  0
    6.5371   -5.2708   24.5619 C   0  0  0  0  0  0  0  0  0  0  0  0
    5.8131   -6.5810   24.4661 C   0  0  0  0  0  0  0  0  0  0  0  0
    5.7872   -2.8101   26.0974 C   0  0  0  0  0  0  0  0  0  0  0  0
    6.7177   -1.6376   26.0015 C   0  0  0  0  0  0  0  0  0  0  0  0
    6.4075   -0.3712   26.7431 C   0  0  0  0  0  0  0  0  0  0  0  0
    7.3380    0.8014   26.6472 F   0  0  0  0  0  0  0  0  0  0  0  0
    5.1666   -0.2774   27.5807 C   0  0  0  0  0  0  0  0  0  0  0  0
    4.2361   -1.4499   27.6766 C   0  0  0  0  0  0  0  0  0  0  0  0
    4.5464   -2.7163   26.9350 C   0  0  0  0  0  0  0  0  0  0  0  0
    3.6158   -3.8889   27.0309 C   0  0  0  0  0  0  0  0  0  0  0  0
    2.3750   -3.7950   27.8685 O   0  0  0  0  0  0  0  0  0  0  0  0
    9.4003   -2.7651   23.7948 C   0  0  0  0  0  0  0  0  0  0  0  0
    9.3606   -1.9857   22.5137 C   0  0  0  0  0  0  0  0  0  0  0  0
   10.5749   -1.2339   22.0553 N   0  0  0  0  0  0  0  0  0  0  0  0
   11.8290   -1.2615   22.8778 C   0  0  0  0  0  0  0  0  0  0  0  0
   11.8687   -2.0409   24.1588 C   0  0  0  0  0  0  0  0  0  0  0  0
   13.1228   -2.0685   24.9814 C   0  0  0  0  0  0  0  0  0  0  0  0
   13.1624   -2.8479   26.2624 C   0  0  0  0  0  0  0  0  0  0  0  0
   11.9481   -3.5997   26.7209 C   0  0  0  0  0  0  0  0  0  0  0  0
   10.6940   -3.5721   25.8983 C   0  0  0  0  0  0  0  0  0  0  0  0
   10.6543   -2.7927   24.6173 C   0  0  0  0  0  0  0  0  0  0  0  0
    2.9955   -6.3278   26.3852 C   0  0  0  0  0  0  0  0  0  0  0  0
    1.0512   -6.5426   22.9322 C   0  0  0  0  0  0  0  0  0  0  0  0
    2.1657   -6.3865   23.9240 N   0  0  0  0  0  0  0  0  0  0  0  0
    1.8810   -6.4839   25.3935 C   0  0  0  0  0  0  0  0  0  0  0  0
    0.4819   -6.7375   25.8712 O   0  0  0  0  0  0  0  0  0  0  0  0
    3.0839   -6.2200   23.6104 H   0  0  0  0  0  0  0  0  0  0  0  0
 30 31  1  0  0  0
 31 32  1  0  0  0
 32 33  2  0  0  0
 32 29  1  0  0  0
 29  1  1  0  0  0
  1  2  1  0  0  0
  3  2  1  0  0  0
  3  4  1  0  0  0
  4  5  2  0  0  0
  4  6  1  0  0  0
  6 19  1  0  0  0
 19 20  2  0  0  0
 20 21  1  0  0  0
 21 22  2  0  0  0
 22 23  1  0  0  0
 23 24  2  0  0  0
 24 25  1  0  0  0
 25 26  2  0  0  0
 26 27  1  0  0  0
 27 28  2  0  0  0
  6  7  1  0  0  0
  7  8  1  0  0  0
  8  9  1  0  0  0
  3 10  1  0  0  0
 10 11  2  0  0  0
 11 12  1  0  0  0
 12 13  1  0  0  0
 12 14  2  0  0  0
 14 15  1  0  0  0
 15 16  2  0  0  0
 16 17  1  0  0  0
 17 18  2  0  0  0
 17  1  1  0  0  0
  8  3  1  0  0  0
 16 10  1  0  0  0
 28 19  1  0  0  0
 28 23  1  0  0  0
 31 34  1  0  0  0
M  END
> <minimizedAffinity>
-7.41748

> <CNNscore>
0.3302339911

> <CNNaffinity>
6.1595258713

> <CNN_VS>
2.0340847969

> <CNNaffinity_variance>
0.0983992890

$$$$



 34 38  0  0  0  0  0  0  0  0999 V2000
    4.7494    2.2071   21.1256 N   0  0  0  0  0  0  0  0  0  0  0  0
    5.5964    0.9692   21.1387 C   0  0  0  0  0  0  0  0  0  0  0  0
    6.2877    0.5468   22.4011 C   0  0  0  0  0  0  0  0  0  0  0  0
    7.0356    0.0027   23.5820 C   0  0  0  0  0  0  0  0  0  0  0  0
    7.2376    0.2560   24.7531 O   0  0  0  0  0  0  0  0  0  0  0  0
    7.7457   -1.2447   23.1464 N   0  0  0  0  0  0  0  0  0  0  0  0
    7.4366   -1.4716   21.6962 C   0  0  0  0  0  0  0  0  0  0  0  0
    6.5354   -0.3644   21.2356 C   0  0  0  0  0  0  0  0  0  0  0  0
    5.9797   -0.1977   19.8524 C   0  0  0  0  0  0  0  0  0  0  0  0
    6.1319    1.3622   23.6505 C   0  0  0  0  0  0  0  0  0  0  0  0
    6.8231    0.9398   24.9128 C   0  0  0  0  0  0  0  0  0  0  0  0
    6.6673    1.7552   26.1621 C   0  0  0  0  0  0  0  0  0  0  0  0
    7.3586    1.3328   27.4246 F   0  0  0  0  0  0  0  0  0  0  0  0
    5.8203    2.9931   26.1490 C   0  0  0  0  0  0  0  0  0  0  0  0
    5.1290    3.4156   24.8866 C   0  0  0  0  0  0  0  0  0  0  0  0
    5.2848    2.6001   23.6373 C   0  0  0  0  0  0  0  0  0  0  0  0
    4.5936    3.0225   22.3748 C   0  0  0  0  0  0  0  0  0  0  0  0
    3.7465    4.2604   22.3617 O   0  0  0  0  0  0  0  0  0  0  0  0
    8.6127   -2.1128   24.0094 C   0  0  0  0  0  0  0  0  0  0  0  0
    8.0372   -3.3345   24.6622 C   0  0  0  0  0  0  0  0  0  0  0  0
    8.9041   -4.2026   25.5253 N   0  0  0  0  0  0  0  0  0  0  0  0
   10.3466   -3.8489   25.7354 C   0  0  0  0  0  0  0  0  0  0  0  0
   10.9221   -2.6272   25.0825 C   0  0  0  0  0  0  0  0  0  0  0  0
   12.3647   -2.2736   25.2927 C   0  0  0  0  0  0  0  0  0  0  0  0
   12.9401   -1.0518   24.6398 C   0  0  0  0  0  0  0  0  0  0  0  0
   12.0731   -0.1838   23.7768 C   0  0  0  0  0  0  0  0  0  0  0  0
   10.6306   -0.5374   23.5667 C   0  0  0  0  0  0  0  0  0  0  0  0
   10.0551   -1.7591   24.2195 C   0  0  0  0  0  0  0  0  0  0  0  0
    4.0581    2.6295   19.8631 C   0  0  0  0  0  0  0  0  0  0  0  0
    0.6326    4.6305   19.7547 C   0  0  0  0  0  0  0  0  0  0  0  0
    2.1035    4.3368   19.7421 N   0  0  0  0  0  0  0  0  0  0  0  0
    2.5872    2.9232   19.8756 C   0  0  0  0  0  0  0  0  0  0  0  0
    1.6000    1.8033   20.0217 O   0  0  0  0  0  0  0  0  0  0  0  0
    2.7514    5.0718   19.6462 H   0  0  0  0  0  0  0  0  0  0  0  0
 30 31  1  0  0  0
 31 32  1  0  0  0
 32 33  2  0  0  0
 32 29  1  0  0  0
 29  1  1  0  0  0
  1  2  1  0  0  0
  3  2  1  0  0  0
  3  4  1  0  0  0
  4  5  2  0  0  0
  4  6  1  0  0  0
  6 19  1  0  0  0
 19 20  2  0  0  0
 20 21  1  0  0  0
 21 22  2  0  0  0
 22 23  1  0  0  0
 23 24  2  0  0  0
 24 25  1  0  0  0
 25 26  2  0  0  0
 26 27  1  0  0  0
 27 28  2  0  0  0
  6  7  1  0  0  0
  7  8  1  0  0  0
  8  9  1  0  0  0
  3 10  1  0  0  0
 10 11  2  0  0  0
 11 12  1  0  0  0
 12 13  1  0  0  0
 12 14  2  0  0  0
 14 15  1  0  0  0
 15 16  2  0  0  0
 16 17  1  0  0  0
 17 18  2  0  0  0
 17  1  1  0  0  0
  8  3  1  0  0  0
 16 10  1  0  0  0
 28 19  1  0  0  0
 28 23  1  0  0  0
 31 34  1  0  0  0
M  END
> <minimizedAffinity>
-7.62386

> <CNNscore>
0.2858757377

> <CNNaffinity>
6.1543359756

> <CNN_VS>
1.7593753338

> <CNNaffinity_variance>
0.1398021877

$$$$



 34 38  0  0  0  0  0  0  0  0999 V2000
    8.5335    4.5039   23.4513 N   0  0  0  0  0  0  0  0  0  0  0  0
    7.7676    3.2680   23.8198 C   0  0  0  0  0  0  0  0  0  0  0  0
    8.4311    1.9247   23.7466 C   0  0  0  0  0  0  0  0  0  0  0  0
    8.9585    0.5207   23.7228 C   0  0  0  0  0  0  0  0  0  0  0  0
    9.9782   -0.0863   23.4618 O   0  0  0  0  0  0  0  0  0  0  0  0
    7.8566   -0.3959   24.1651 N   0  0  0  0  0  0  0  0  0  0  0  0
    6.6482    0.4416   24.4624 C   0  0  0  0  0  0  0  0  0  0  0  0
    7.0033    1.8758   24.2037 C   0  0  0  0  0  0  0  0  0  0  0  0
    6.0907    3.0542   24.3726 C   0  0  0  0  0  0  0  0  0  0  0  0
    9.8606    1.8174   23.3050 C   0  0  0  0  0  0  0  0  0  0  0  0
   10.5241    0.4741   23.2318 C   0  0  0  0  0  0  0  0  0  0  0  0
   11.9536    0.3668   22.7901 C   0  0  0  0  0  0  0  0  0  0  0  0
   12.6172   -0.9765   22.7169 F   0  0  0  0  0  0  0  0  0  0  0  0
   12.7195    1.6027   22.4216 C   0  0  0  0  0  0  0  0  0  0  0  0
   12.0560    2.9460   22.4948 C   0  0  0  0  0  0  0  0  0  0  0  0
   10.6266    3.0533   22.9365 C   0  0  0  0  0  0  0  0  0  0  0  0
    9.9630    4.3966   23.0096 C   0  0  0  0  0  0  0  0  0  0  0  0
   10.7289    5.6325   22.6411 O   0  0  0  0  0  0  0  0  0  0  0  0
    7.9473   -1.8881   24.2885 C   0  0  0  0  0  0  0  0  0  0  0  0
    6.9301   -2.7597   23.6134 C   0  0  0  0  0  0  0  0  0  0  0  0
    7.0207   -4.2519   23.7368 N   0  0  0  0  0  0  0  0  0  0  0  0
    8.1286   -4.8724   24.5353 C   0  0  0  0  0  0  0  0  0  0  0  0
    9.1457   -4.0008   25.2104 C   0  0  0  0  0  0  0  0  0  0  0  0
   10.2536   -4.6215   26.0089 C   0  0  0  0  0  0  0  0  0  0  0  0
   11.2707   -3.7498   26.6840 C   0  0  0  0  0  0  0  0  0  0  0  0
   11.1801   -2.2576   26.5606 C   0  0  0  0  0  0  0  0  0  0  0  0
   10.0723   -1.6371   25.7621 C   0  0  0  0  0  0  0  0  0  0  0  0
    9.0551   -2.5087   25.0870 C   0  0  0  0  0  0  0  0  0  0  0  0
    7.8700    5.8472   23.5245 C   0  0  0  0  0  0  0  0  0  0  0  0
    4.4200    5.7718   21.5644 C   0  0  0  0  0  0  0  0  0  0  0  0
    5.8845    5.6416   21.8615 N   0  0  0  0  0  0  0  0  0  0  0  0
    6.4055    5.9774   23.2274 C   0  0  0  0  0  0  0  0  0  0  0  0
    5.4619    6.4435   24.2963 O   0  0  0  0  0  0  0  0  0  0  0  0
    6.5038    5.3357   21.1600 H   0  0  0  0  0  0  0  0  0  0  0  0
 30 31  1  0  0  0
 31 32  1  0  0  0
 32 33  2  0  0  0
 32 29  1  0  0  0
 29  1  1  0  0  0
  1  2  1  0  0  0
  3  2  1  0  0  0
  3  4  1  0  0  0
  4  5  2  0  0  0
  4  6  1  0  0  0
  6 19  1  0  0  0
 19 20  2  0  0  0
 20 21  1  0  0  0
 21 22  2  0  0  0
 22 23  1  0  0  0
 23 24  2  0  0  0
 24 25  1  0  0  0
 25 26  2  0  0  0
 26 27  1  0  0  0
 27 28  2  0  0  0
  6  7  1  0  0  0
  7  8  1  0  0  0
  8  9  1  0  0  0
  3 10  1  0  0  0
 10 11  2  0  0  0
 11 12  1  0  0  0
 12 13  1  0  0  0
 12 14  2  0  0  0
 14 15  1  0  0  0
 15 16  2  0  0  0
 16 17  1  0  0  0
 17 18  2  0  0  0
 17  1  1  0  0  0
  8  3  1  0  0  0
 16 10  1  0  0  0
 28 19  1  0  0  0
 28 23  1  0  0  0
 31 34  1  0  0  0
M  END
> <minimizedAffinity>
-7.05518

> <CNNscore>
0.2708232999

> <CNNaffinity>
6.2537131310

> <CNN_VS>
1.6936511993

> <CNNaffinity_variance>
0.2799873352

$$$$



 34 38  0  0  0  0  0  0  0  0999 V2000
    5.3671    1.8465   22.3643 N   0  0  0  0  0  0  0  0  0  0  0  0
    6.5426    0.9177   22.4385 C   0  0  0  0  0  0  0  0  0  0  0  0
    6.8722    0.2269   23.7285 C   0  0  0  0  0  0  0  0  0  0  0  0
    7.3221   -0.5306   24.9425 C   0  0  0  0  0  0  0  0  0  0  0  0
    7.0149   -0.6895   26.1073 O   0  0  0  0  0  0  0  0  0  0  0  0
    8.5321   -1.3332   24.5661 N   0  0  0  0  0  0  0  0  0  0  0  0
    8.8302   -1.0717   23.1195 C   0  0  0  0  0  0  0  0  0  0  0  0
    7.8043   -0.1076   22.6018 C   0  0  0  0  0  0  0  0  0  0  0  0
    7.7245    0.4281   21.2030 C   0  0  0  0  0  0  0  0  0  0  0  0
    6.0264    0.4648   24.9442 C   0  0  0  0  0  0  0  0  0  0  0  0
    6.3560   -0.2260   26.2342 C   0  0  0  0  0  0  0  0  0  0  0  0
    5.5102    0.0119   27.4498 C   0  0  0  0  0  0  0  0  0  0  0  0
    5.8398   -0.6789   28.7399 F   0  0  0  0  0  0  0  0  0  0  0  0
    4.3347    0.9407   27.3756 C   0  0  0  0  0  0  0  0  0  0  0  0
    4.0050    1.6316   26.0856 C   0  0  0  0  0  0  0  0  0  0  0  0
    4.8509    1.3936   24.8700 C   0  0  0  0  0  0  0  0  0  0  0  0
    4.5212    2.0845   23.5799 C   0  0  0  0  0  0  0  0  0  0  0  0
    3.3457    3.0133   23.5056 O   0  0  0  0  0  0  0  0  0  0  0  0
    9.3079   -2.2383   25.4766 C   0  0  0  0  0  0  0  0  0  0  0  0
    8.5884   -3.2438   26.3259 C   0  0  0  0  0  0  0  0  0  0  0  0
    9.3642   -4.1489   27.2363 N   0  0  0  0  0  0  0  0  0  0  0  0
   10.8595   -4.0485   27.2974 C   0  0  0  0  0  0  0  0  0  0  0  0
   11.5791   -3.0431   26.4481 C   0  0  0  0  0  0  0  0  0  0  0  0
   13.0746   -2.9427   26.5093 C   0  0  0  0  0  0  0  0  0  0  0  0
   13.7941   -1.9372   25.6600 C   0  0  0  0  0  0  0  0  0  0  0  0
   13.0183   -1.0321   24.7495 C   0  0  0  0  0  0  0  0  0  0  0  0
   11.5229   -1.1325   24.6884 C   0  0  0  0  0  0  0  0  0  0  0  0
   10.8033   -2.1380   25.5377 C   0  0  0  0  0  0  0  0  0  0  0  0
    5.0374    2.5374   21.0742 C   0  0  0  0  0  0  0  0  0  0  0  0
    4.8420    0.5291   17.6568 C   0  0  0  0  0  0  0  0  0  0  0  0
    5.3931    1.3155   18.8092 N   0  0  0  0  0  0  0  0  0  0  0  0
    4.4863    1.7510   19.9218 C   0  0  0  0  0  0  0  0  0  0  0  0
    3.0284    1.4002   19.8822 O   0  0  0  0  0  0  0  0  0  0  0  0
    6.3499    1.5457   18.8352 H   0  0  0  0  0  0  0  0  0  0  0  0
 30 31  1  0  0  0
 31 32  1  0  0  0
 32 33  2  0  0  0
 32 29  1  0  0  0
 29  1  1  0  0  0
  1  2  1  0  0  0
  3  2  1  0  0  0
  3  4  1  0  0  0
  4  5  2  0  0  0
  4  6  1  0  0  0
  6 19  1  0  0  0
 19 20  2  0  0  0
 20 21  1  0  0  0
 21 22  2  0  0  0
 22 23  1  0  0  0
 23 24  2  0  0  0
 24 25  1  0  0  0
 25 26  2  0  0  0
 26 27  1  0  0  0
 27 28  2  0  0  0
  6  7  1  0  0  0
  7  8  1  0  0  0
  8  9  1  0  0  0
  3 10  1  0  0  0
 10 11  2  0  0  0
 11 12  1  0  0  0
 12 13  1  0  0  0
 12 14  2  0  0  0
 14 15  1  0  0  0
 15 16  2  0  0  0
 16 17  1  0  0  0
 17 18  2  0  0  0
 17  1  1  0  0  0
  8  3  1  0  0  0
 16 10  1  0  0  0
 28 19  1  0  0  0
 28 23  1  0  0  0
 31 34  1  0  0  0
M  END
> <minimizedAffinity>
-7.26127

> <CNNscore>
0.2656338513

> <CNNaffinity>
6.1996164322

> <CNN_VS>
1.6468279362

> <CNNaffinity_variance>
0.1192325726

$$$$



 34 38  0  0  0  0  0  0  0  0999 V2000
    7.1620   -3.3956   23.0877 N   0  0  0  0  0  0  0  0  0  0  0  0
    7.3873   -2.0087   22.5625 C   0  0  0  0  0  0  0  0  0  0  0  0
    8.5687   -1.2120   23.0310 C   0  0  0  0  0  0  0  0  0  0  0  0
    9.6996   -0.3004   23.4052 C   0  0  0  0  0  0  0  0  0  0  0  0
   10.6842   -0.2824   24.1170 O   0  0  0  0  0  0  0  0  0  0  0  0
    9.5324    0.9818   22.6449 N   0  0  0  0  0  0  0  0  0  0  0  0
    8.2982    0.8627   21.8008 C   0  0  0  0  0  0  0  0  0  0  0  0
    7.7027   -0.4932   22.0394 C   0  0  0  0  0  0  0  0  0  0  0  0
    6.4592   -1.0351   21.3989 C   0  0  0  0  0  0  0  0  0  0  0  0
    9.5250   -1.8022   24.0246 C   0  0  0  0  0  0  0  0  0  0  0  0
   10.7064   -1.0056   24.4931 C   0  0  0  0  0  0  0  0  0  0  0  0
   11.6626   -1.5958   25.4867 C   0  0  0  0  0  0  0  0  0  0  0  0
   12.8442   -0.7992   25.9552 F   0  0  0  0  0  0  0  0  0  0  0  0
   11.4374   -2.9827   26.0118 C   0  0  0  0  0  0  0  0  0  0  0  0
   10.2560   -3.7794   25.5434 C   0  0  0  0  0  0  0  0  0  0  0  0
    9.2998   -3.1891   24.5498 C   0  0  0  0  0  0  0  0  0  0  0  0
    8.1182   -3.9858   24.0813 C   0  0  0  0  0  0  0  0  0  0  0  0
    7.8930   -5.3727   24.6064 O   0  0  0  0  0  0  0  0  0  0  0  0
   10.4401    2.1739   22.7163 C   0  0  0  0  0  0  0  0  0  0  0  0
   11.9220    1.9985   22.5633 C   0  0  0  0  0  0  0  0  0  0  0  0
   12.8297    3.1906   22.6346 N   0  0  0  0  0  0  0  0  0  0  0  0
   12.2555    4.5580   22.8590 C   0  0  0  0  0  0  0  0  0  0  0  0
   10.7736    4.7334   23.0120 C   0  0  0  0  0  0  0  0  0  0  0  0
   10.1995    6.1010   23.2364 C   0  0  0  0  0  0  0  0  0  0  0  0
    8.7176    6.2763   23.3894 C   0  0  0  0  0  0  0  0  0  0  0  0
    7.8100    5.0842   23.3180 C   0  0  0  0  0  0  0  0  0  0  0  0
    8.3841    3.7168   23.0937 C   0  0  0  0  0  0  0  0  0  0  0  0
    9.8660    3.5414   22.9406 C   0  0  0  0  0  0  0  0  0  0  0  0
    5.9805   -4.1922   22.6192 C   0  0  0  0  0  0  0  0  0  0  0  0
    4.9701   -7.3519   24.7975 C   0  0  0  0  0  0  0  0  0  0  0  0
    5.1355   -5.9271   24.3587 N   0  0  0  0  0  0  0  0  0  0  0  0
    5.8151   -5.6170   23.0580 C   0  0  0  0  0  0  0  0  0  0  0  0
    6.3292   -6.7318   22.1959 O   0  0  0  0  0  0  0  0  0  0  0  0
    4.7981   -5.1955   24.9245 H   0  0  0  0  0  0  0  0  0  0  0  0
 30 31  1  0  0  0
 31 32  1  0  0  0
 32 33  2  0  0  0
 32 29  1  0  0  0
 29  1  1  0  0  0
  1  2  1  0  0  0
  3  2  1  0  0  0
  3  4  1  0  0  0
  4  5  2  0  0  0
  4  6  1  0  0  0
  6 19  1  0  0  0
 19 20  2  0  0  0
 20 21  1  0  0  0
 21 22  2  0  0  0
 22 23  1  0  0  0
 23 24  2  0  0  0
 24 25  1  0  0  0
 25 26  2  0  0  0
 26 27  1  0  0  0
 27 28  2  0  0  0
  6  7  1  0  0  0
  7  8  1  0  0  0
  8  9  1  0  0  0
  3 10  1  0  0  0
 10 11  2  0  0  0
 11 12  1  0  0  0
 12 13  1  0  0  0
 12 14  2  0  0  0
 14 15  1  0  0  0
 15 16  2  0  0  0
 16 17  1  0  0  0
 17 18  2  0  0  0
 17  1  1  0  0  0
  8  3  1  0  0  0
 16 10  1  0  0  0
 28 19  1  0  0  0
 28 23  1  0  0  0
 31 34  1  0  0  0
M  END
> <minimizedAffinity>
-8.20337

> <CNNscore>
0.2401436418

> <CNNaffinity>
6.2534599304

> <CNN_VS>
1.5017286539

> <CNNaffinity_variance>
0.1659977883

$$$$



 34 38  0  0  0  0  0  0  0  0999 V2000
    7.7503    4.5906   23.7516 N   0  0  0  0  0  0  0  0  0  0  0  0
    8.4613    3.3103   23.4269 C   0  0  0  0  0  0  0  0  0  0  0  0
    8.1221    2.0540   24.1729 C   0  0  0  0  0  0  0  0  0  0  0  0
    7.8910    0.7258   24.8306 C   0  0  0  0  0  0  0  0  0  0  0  0
    7.2026    0.2232   25.6966 O   0  0  0  0  0  0  0  0  0  0  0  0
    8.8151   -0.2719   24.1977 N   0  0  0  0  0  0  0  0  0  0  0  0
    9.6173    0.4396   23.1488 C   0  0  0  0  0  0  0  0  0  0  0  0
    9.1890    1.8771   23.1335 C   0  0  0  0  0  0  0  0  0  0  0  0
    9.7322    2.9494   22.2362 C   0  0  0  0  0  0  0  0  0  0  0  0
    7.0718    2.0779   25.2437 C   0  0  0  0  0  0  0  0  0  0  0  0
    6.7326    0.8216   25.9897 C   0  0  0  0  0  0  0  0  0  0  0  0
    5.6824    0.8456   27.0604 C   0  0  0  0  0  0  0  0  0  0  0  0
    5.3431   -0.4108   27.8065 F   0  0  0  0  0  0  0  0  0  0  0  0
    4.9714    2.1258   27.3851 C   0  0  0  0  0  0  0  0  0  0  0  0
    5.3106    3.3821   26.6390 C   0  0  0  0  0  0  0  0  0  0  0  0
    6.3608    3.3582   25.5684 C   0  0  0  0  0  0  0  0  0  0  0  0
    6.7001    4.6145   24.8223 C   0  0  0  0  0  0  0  0  0  0  0  0
    5.9891    5.8948   25.1469 O   0  0  0  0  0  0  0  0  0  0  0  0
    8.9188   -1.7259   24.5516 C   0  0  0  0  0  0  0  0  0  0  0  0
    7.7825   -2.6555   24.2440 C   0  0  0  0  0  0  0  0  0  0  0  0
    7.8861   -4.1095   24.5979 N   0  0  0  0  0  0  0  0  0  0  0  0
    9.1261   -4.6338   25.2594 C   0  0  0  0  0  0  0  0  0  0  0  0
   10.2624   -3.7041   25.5670 C   0  0  0  0  0  0  0  0  0  0  0  0
   11.5024   -4.2285   26.2285 C   0  0  0  0  0  0  0  0  0  0  0  0
   12.6387   -3.2988   26.5360 C   0  0  0  0  0  0  0  0  0  0  0  0
   12.5350   -1.8448   26.1821 C   0  0  0  0  0  0  0  0  0  0  0  0
   11.2950   -1.3205   25.5207 C   0  0  0  0  0  0  0  0  0  0  0  0
   10.1587   -2.2502   25.2131 C   0  0  0  0  0  0  0  0  0  0  0  0
    8.0895    5.8469   23.0055 C   0  0  0  0  0  0  0  0  0  0  0  0
   10.8163    7.8258   25.1028 C   0  0  0  0  0  0  0  0  0  0  0  0
    9.5716    7.0625   24.7593 N   0  0  0  0  0  0  0  0  0  0  0  0
    9.3343    6.6102   23.3490 C   0  0  0  0  0  0  0  0  0  0  0  0
   10.3418    6.9213   22.2820 O   0  0  0  0  0  0  0  0  0  0  0  0
    8.9103    6.8583   25.4595 H   0  0  0  0  0  0  0  0  0  0  0  0
 30 31  1  0  0  0
 31 32  1  0  0  0
 32 33  2  0  0  0
 32 29  1  0  0  0
 29  1  1  0  0  0
  1  2  1  0  0  0
  3  2  1  0  0  0
  3  4  1  0  0  0
  4  5  2  0  0  0
  4  6  1  0  0  0
  6 19  1  0  0  0
 19 20  2  0  0  0
 20 21  1  0  0  0
 21 22  2  0  0  0
 22 23  1  0  0  0
 23 24  2  0  0  0
 24 25  1  0  0  0
 25 26  2  0  0  0
 26 27  1  0  0  0
 27 28  2  0  0  0
  6  7  1  0  0  0
  7  8  1  0  0  0
  8  9  1  0  0  0
  3 10  1  0  0  0
 10 11  2  0  0  0
 11 12  1  0  0  0
 12 13  1  0  0  0
 12 14  2  0  0  0
 14 15  1  0  0  0
 15 16  2  0  0  0
 16 17  1  0  0  0
 17 18  2  0  0  0
 17  1  1  0  0  0
  8  3  1  0  0  0
 16 10  1  0  0  0
 28 19  1  0  0  0
 28 23  1  0  0  0
 31 34  1  0  0  0
M  END
> <minimizedAffinity>
-7.37190

> <CNNscore>
0.2306724787

> <CNNaffinity>
5.9243717194

> <CNN_VS>
1.3665895462

> <CNNaffinity_variance>
0.2113404572

$$$$
