


 34 38  0  0  0  0  0  0  0  0999 V2000
   -7.8433   -1.5706  -23.9485 N   0  0  0  0  0  0  0  0  0  0  0  0
   -8.1454   -0.1062  -24.0681 C   0  0  0  0  0  0  0  0  0  0  0  0
   -9.5471    0.3891  -23.8688 C   0  0  0  0  0  0  0  0  0  0  0  0
  -10.8931    1.0286  -23.6972 C   0  0  0  0  0  0  0  0  0  0  0  0
  -12.0430    0.7249  -23.4488 O   0  0  0  0  0  0  0  0  0  0  0  0
  -10.7341    2.5059  -23.9032 N   0  0  0  0  0  0  0  0  0  0  0  0
   -9.2899    2.7794  -24.2023 C   0  0  0  0  0  0  0  0  0  0  0  0
   -8.5563    1.4712  -24.1810 C   0  0  0  0  0  0  0  0  0  0  0  0
   -7.0894    1.2788  -24.4285 C   0  0  0  0  0  0  0  0  0  0  0  0
  -10.6469   -0.5799  -23.5501 C   0  0  0  0  0  0  0  0  0  0  0  0
  -12.0486   -0.0846  -23.3509 C   0  0  0  0  0  0  0  0  0  0  0  0
  -13.1483   -1.0537  -23.0321 C   0  0  0  0  0  0  0  0  0  0  0  0
  -14.5501   -0.5584  -22.8329 F   0  0  0  0  0  0  0  0  0  0  0  0
  -12.8462   -2.5181  -22.9126 C   0  0  0  0  0  0  0  0  0  0  0  0
  -11.4444   -3.0134  -23.1118 C   0  0  0  0  0  0  0  0  0  0  0  0
  -10.3448   -2.0443  -23.4306 C   0  0  0  0  0  0  0  0  0  0  0  0
   -8.9430   -2.5397  -23.6298 C   0  0  0  0  0  0  0  0  0  0  0  0
   -8.6409   -4.0041  -23.5103 O   0  0  0  0  0  0  0  0  0  0  0  0
  -11.8274    3.5298  -23.8242 C   0  0  0  0  0  0  0  0  0  0  0  0
  -12.5980    3.7073  -22.5495 C   0  0  0  0  0  0  0  0  0  0  0  0
  -13.6913    4.7312  -22.4704 N   0  0  0  0  0  0  0  0  0  0  0  0
  -14.0140    5.5777  -23.6660 C   0  0  0  0  0  0  0  0  0  0  0  0
  -13.2434    5.4002  -24.9406 C   0  0  0  0  0  0  0  0  0  0  0  0
  -13.5661    6.2467  -26.1362 C   0  0  0  0  0  0  0  0  0  0  0  0
  -12.7954    6.0692  -27.4108 C   0  0  0  0  0  0  0  0  0  0  0  0
  -11.7021    5.0453  -27.4899 C   0  0  0  0  0  0  0  0  0  0  0  0
  -11.3794    4.1988  -26.2944 C   0  0  0  0  0  0  0  0  0  0  0  0
  -12.1501    4.3763  -25.0197 C   0  0  0  0  0  0  0  0  0  0  0  0
   -6.4415   -2.0659  -24.1478 C   0  0  0  0  0  0  0  0  0  0  0  0
   -4.7244   -4.9632  -26.2472 C   0  0  0  0  0  0  0  0  0  0  0  0
   -5.0338   -4.0199  -25.1227 N   0  0  0  0  0  0  0  0  0  0  0  0
   -6.1321   -3.0092  -25.2722 C   0  0  0  0  0  0  0  0  0  0  0  0
   -6.9210   -2.9418  -26.5463 O   0  0  0  0  0  0  0  0  0  0  0  0
   -4.5161   -4.0641  -24.2865 H   0  0  0  0  0  0  0  0  0  0  0  0
 30 31  1  0  0  0
 31 32  1  0  0  0
 32 33  2  0  0  0
 32 29  1  0  0  0
 29  1  1  0  0  0
  1  2  1  0  0  0
  3  2  1  0  0  0
  3  4  1  0  0  0
  4  5  2  0  0  0
  4  6  1  0  0  0
  6 19  1  0  0  0
 19 20  2  0  0  0
 20 21  1  0  0  0
 21 22  2  0  0  0
 22 23  1  0  0  0
 23 24  2  0  0  0
 24 25  1  0  0  0
 25 26  2  0  0  0
 26 27  1  0  0  0
 27 28  2  0  0  0
  6  7  1  0  0  0
  7  8  1  0  0  0
  8  9  1  0  0  0
  3 10  1  0  0  0
 10 11  2  0  0  0
 11 12  1  0  0  0
 12 13  1  0  0  0
 12 14  2  0  0  0
 14 15  1  0  0  0
 15 16  2  0  0  0
 16 17  1  0  0  0
 17 18  2  0  0  0
 17  1  1  0  0  0
  8  3  1  0  0  0
 16 10  1  0  0  0
 28 19  1  0  0  0
 28 23  1  0  0  0
 31 34  1  0  0  0
M  END
> <minimizedAffinity>
-7.36632

> <CNNscore>
0.8990852237

> <CNNaffinity>
6.6410789490

> <CNN_VS>
5.9708957672

> <CNNaffinity_variance>
0.0318302140

$$$$



 34 38  0  0  0  0  0  0  0  0999 V2000
   -7.4909   -0.8180  -23.0178 N   0  0  0  0  0  0  0  0  0  0  0  0
   -7.7760    0.6229  -23.3220 C   0  0  0  0  0  0  0  0  0  0  0  0
   -9.1938    1.0981  -23.4405 C   0  0  0  0  0  0  0  0  0  0  0  0
  -10.5526    1.7160  -23.5879 C   0  0  0  0  0  0  0  0  0  0  0  0
  -11.7264    1.4058  -23.5394 O   0  0  0  0  0  0  0  0  0  0  0  0
  -10.3688    3.1739  -23.8893 N   0  0  0  0  0  0  0  0  0  0  0  0
   -8.8963    3.4571  -23.9281 C   0  0  0  0  0  0  0  0  0  0  0  0
   -8.1701    2.1742  -23.6507 C   0  0  0  0  0  0  0  0  0  0  0  0
   -6.6815    1.9983  -23.5937 C   0  0  0  0  0  0  0  0  0  0  0  0
  -10.3265    0.1324  -23.2548 C   0  0  0  0  0  0  0  0  0  0  0  0
  -11.7443    0.6077  -23.3733 C   0  0  0  0  0  0  0  0  0  0  0  0
  -12.8769   -0.3580  -23.1875 C   0  0  0  0  0  0  0  0  0  0  0  0
  -14.2948    0.1172  -23.3060 F   0  0  0  0  0  0  0  0  0  0  0  0
  -12.5918   -1.7989  -22.8833 C   0  0  0  0  0  0  0  0  0  0  0  0
  -11.1741   -2.2741  -22.7648 C   0  0  0  0  0  0  0  0  0  0  0  0
  -10.0414   -1.3084  -22.9505 C   0  0  0  0  0  0  0  0  0  0  0  0
   -8.6236   -1.7836  -22.8320 C   0  0  0  0  0  0  0  0  0  0  0  0
   -8.3385   -3.2245  -22.5278 O   0  0  0  0  0  0  0  0  0  0  0  0
  -11.4650    4.1731  -24.1126 C   0  0  0  0  0  0  0  0  0  0  0  0
  -12.2800    4.6641  -22.9529 C   0  0  0  0  0  0  0  0  0  0  0  0
  -13.3762    5.6633  -23.1763 N   0  0  0  0  0  0  0  0  0  0  0  0
  -13.6574    6.1716  -24.5592 C   0  0  0  0  0  0  0  0  0  0  0  0
  -12.8424    5.6806  -25.7188 C   0  0  0  0  0  0  0  0  0  0  0  0
  -13.1236    6.1890  -27.1019 C   0  0  0  0  0  0  0  0  0  0  0  0
  -12.3085    5.6980  -28.2614 C   0  0  0  0  0  0  0  0  0  0  0  0
  -11.2123    4.6987  -28.0381 C   0  0  0  0  0  0  0  0  0  0  0  0
  -10.9311    4.1904  -26.6552 C   0  0  0  0  0  0  0  0  0  0  0  0
  -11.7462    4.6814  -25.4955 C   0  0  0  0  0  0  0  0  0  0  0  0
   -6.0731   -1.2932  -22.8993 C   0  0  0  0  0  0  0  0  0  0  0  0
   -4.1994    0.5080  -19.9001 C   0  0  0  0  0  0  0  0  0  0  0  0
   -4.9554    0.3010  -21.1790 N   0  0  0  0  0  0  0  0  0  0  0  0
   -5.3171   -1.0862  -21.6203 C   0  0  0  0  0  0  0  0  0  0  0  0
   -4.9230   -2.2665  -20.7827 O   0  0  0  0  0  0  0  0  0  0  0  0
   -5.2141    1.0756  -21.7288 H   0  0  0  0  0  0  0  0  0  0  0  0
 30 31  1  0  0  0
 31 32  1  0  0  0
 32 33  2  0  0  0
 32 29  1  0  0  0
 29  1  1  0  0  0
  1  2  1  0  0  0
  3  2  1  0  0  0
  3  4  1  0  0  0
  4  5  2  0  0  0
  4  6  1  0  0  0
  6 19  1  0  0  0
 19 20  2  0  0  0
 20 21  1  0  0  0
 21 22  2  0  0  0
 22 23  1  0  0  0
 23 24  2  0  0  0
 24 25  1  0  0  0
 25 26  2  0  0  0
 26 27  1  0  0  0
 27 28  2  0  0  0
  6  7  1  0  0  0
  7  8  1  0  0  0
  8  9  1  0  0  0
  3 10  1  0  0  0
 10 11  2  0  0  0
 11 12  1  0  0  0
 12 13  1  0  0  0
 12 14  2  0  0  0
 14 15  1  0  0  0
 15 16  2  0  0  0
 16 17  1  0  0  0
 17 18  2  0  0  0
 17  1  1  0  0  0
  8  3  1  0  0  0
 16 10  1  0  0  0
 28 19  1  0  0  0
 28 23  1  0  0  0
 31 34  1  0  0  0
M  END
> <minimizedAffinity>
-7.56600

> <CNNscore>
0.4317735136

> <CNNaffinity>
6.0579977036

> <CNN_VS>
2.6156828403

> <CNNaffinity_variance>
0.1014479995

$$$$



 34 38  0  0  0  0  0  0  0  0999 V2000
   -7.1202   -0.9727  -22.1491 N   0  0  0  0  0  0  0  0  0  0  0  0
   -7.1925    0.3426  -22.8664 C   0  0  0  0  0  0  0  0  0  0  0  0
   -8.4899    0.8011  -23.4634 C   0  0  0  0  0  0  0  0  0  0  0  0
   -9.7107    1.3881  -24.1076 C   0  0  0  0  0  0  0  0  0  0  0  0
  -10.8836    1.1280  -24.2894 O   0  0  0  0  0  0  0  0  0  0  0  0
   -9.3294    2.7102  -24.7048 N   0  0  0  0  0  0  0  0  0  0  0  0
   -7.8729    2.9403  -24.4297 C   0  0  0  0  0  0  0  0  0  0  0  0
   -7.3541    1.7604  -23.6624 C   0  0  0  0  0  0  0  0  0  0  0  0
   -5.9466    1.5727  -23.1791 C   0  0  0  0  0  0  0  0  0  0  0  0
   -9.7152   -0.0558  -23.3430 C   0  0  0  0  0  0  0  0  0  0  0  0
  -11.0127    0.4026  -23.9399 C   0  0  0  0  0  0  0  0  0  0  0  0
  -12.2379   -0.4543  -23.8195 C   0  0  0  0  0  0  0  0  0  0  0  0
  -13.5354    0.0041  -24.4165 F   0  0  0  0  0  0  0  0  0  0  0  0
  -12.1656   -1.7697  -23.1021 C   0  0  0  0  0  0  0  0  0  0  0  0
  -10.8682   -2.2281  -22.5052 C   0  0  0  0  0  0  0  0  0  0  0  0
   -9.6430   -1.3712  -22.6256 C   0  0  0  0  0  0  0  0  0  0  0  0
   -8.3454   -1.8296  -22.0286 C   0  0  0  0  0  0  0  0  0  0  0  0
   -8.2731   -3.1450  -21.3113 O   0  0  0  0  0  0  0  0  0  0  0  0
  -10.2440    3.6391  -25.4469 C   0  0  0  0  0  0  0  0  0  0  0  0
  -10.0295    3.8929  -26.9097 C   0  0  0  0  0  0  0  0  0  0  0  0
  -10.9441    4.8218  -27.6517 N   0  0  0  0  0  0  0  0  0  0  0  0
  -12.0731    5.4969  -26.9311 C   0  0  0  0  0  0  0  0  0  0  0  0
  -12.2876    5.2432  -25.4683 C   0  0  0  0  0  0  0  0  0  0  0  0
  -13.4167    5.9184  -24.7476 C   0  0  0  0  0  0  0  0  0  0  0  0
  -13.6311    5.6646  -23.2848 C   0  0  0  0  0  0  0  0  0  0  0  0
  -12.7165    4.7357  -22.5428 C   0  0  0  0  0  0  0  0  0  0  0  0
  -11.5875    4.0605  -23.2635 C   0  0  0  0  0  0  0  0  0  0  0  0
  -11.3730    4.3143  -24.7262 C   0  0  0  0  0  0  0  0  0  0  0  0
   -5.8227   -1.4311  -21.5521 C   0  0  0  0  0  0  0  0  0  0  0  0
   -5.5703   -5.3642  -22.0178 C   0  0  0  0  0  0  0  0  0  0  0  0
   -5.7829   -3.9114  -22.3245 N   0  0  0  0  0  0  0  0  0  0  0  0
   -5.6100   -2.8840  -21.2454 C   0  0  0  0  0  0  0  0  0  0  0  0
   -5.2245   -3.3093  -19.8595 O   0  0  0  0  0  0  0  0  0  0  0  0
   -6.0359   -3.6322  -23.2340 H   0  0  0  0  0  0  0  0  0  0  0  0
 30 31  1  0  0  0
 31 32  1  0  0  0
 32 33  2  0  0  0
 32 29  1  0  0  0
 29  1  1  0  0  0
  1  2  1  0  0  0
  3  2  1  0  0  0
  3  4  1  0  0  0
  4  5  2  0  0  0
  4  6  1  0  0  0
  6 19  1  0  0  0
 19 20  2  0  0  0
 20 21  1  0  0  0
 21 22  2  0  0  0
 22 23  1  0  0  0
 23 24  2  0  0  0
 24 25  1  0  0  0
 25 26  2  0  0  0
 26 27  1  0  0  0
 27 28  2  0  0  0
  6  7  1  0  0  0
  7  8  1  0  0  0
  8  9  1  0  0  0
  3 10  1  0  0  0
 10 11  2  0  0  0
 11 12  1  0  0  0
 12 13  1  0  0  0
 12 14  2  0  0  0
 14 15  1  0  0  0
 15 16  2  0  0  0
 16 17  1  0  0  0
 17 18  2  0  0  0
 17  1  1  0  0  0
  8  3  1  0  0  0
 16 10  1  0  0  0
 28 19  1  0  0  0
 28 23  1  0  0  0
 31 34  1  0  0  0
M  END
> <minimizedAffinity>
-7.55532

> <CNNscore>
0.3914391696

> <CNNaffinity>
6.0285673141

> <CNN_VS>
2.3598172665

> <CNNaffinity_variance>
0.1492076516

$$$$



 34 38  0  0  0  0  0  0  0  0999 V2000
   -9.6869    2.7147  -24.5028 N   0  0  0  0  0  0  0  0  0  0  0  0
   -8.7149    1.5800  -24.6361 C   0  0  0  0  0  0  0  0  0  0  0  0
   -9.1456    0.1811  -24.3080 C   0  0  0  0  0  0  0  0  0  0  0  0
   -9.4305   -1.2626  -24.0177 C   0  0  0  0  0  0  0  0  0  0  0  0
  -10.3407   -1.9745  -23.6418 O   0  0  0  0  0  0  0  0  0  0  0  0
   -8.1790   -2.0451  -24.2853 N   0  0  0  0  0  0  0  0  0  0  0  0
   -7.1206   -1.0849  -24.7411 C   0  0  0  0  0  0  0  0  0  0  0  0
   -7.7180    0.2910  -24.7551 C   0  0  0  0  0  0  0  0  0  0  0  0
   -7.0117    1.5548  -25.1474 C   0  0  0  0  0  0  0  0  0  0  0  0
  -10.5482   -0.0831  -23.8466 C   0  0  0  0  0  0  0  0  0  0  0  0
  -10.9788   -1.4820  -23.5186 C   0  0  0  0  0  0  0  0  0  0  0  0
  -12.3814   -1.7462  -23.0572 C   0  0  0  0  0  0  0  0  0  0  0  0
  -12.8121   -3.1451  -22.7291 F   0  0  0  0  0  0  0  0  0  0  0  0
  -13.3534   -0.6115  -22.9238 C   0  0  0  0  0  0  0  0  0  0  0  0
  -12.9228    0.7874  -23.2519 C   0  0  0  0  0  0  0  0  0  0  0  0
  -11.5202    1.0515  -23.7133 C   0  0  0  0  0  0  0  0  0  0  0  0
  -11.0895    2.4505  -24.0414 C   0  0  0  0  0  0  0  0  0  0  0  0
  -12.0615    3.5852  -23.9080 O   0  0  0  0  0  0  0  0  0  0  0  0
   -8.0149   -3.5275  -24.1253 C   0  0  0  0  0  0  0  0  0  0  0  0
   -7.4239   -4.0848  -22.8642 C   0  0  0  0  0  0  0  0  0  0  0  0
   -7.2597   -5.5672  -22.7042 N   0  0  0  0  0  0  0  0  0  0  0  0
   -7.6865   -6.4922  -23.8052 C   0  0  0  0  0  0  0  0  0  0  0  0
   -8.2775   -5.9349  -25.0662 C   0  0  0  0  0  0  0  0  0  0  0  0
   -8.7043   -6.8600  -26.1672 C   0  0  0  0  0  0  0  0  0  0  0  0
   -9.2952   -6.3025  -27.4282 C   0  0  0  0  0  0  0  0  0  0  0  0
   -9.4594   -4.8202  -27.5882 C   0  0  0  0  0  0  0  0  0  0  0  0
   -9.0326   -3.8951  -26.4873 C   0  0  0  0  0  0  0  0  0  0  0  0
   -8.4416   -4.4525  -25.2262 C   0  0  0  0  0  0  0  0  0  0  0  0
   -9.2562    4.1136  -24.8308 C   0  0  0  0  0  0  0  0  0  0  0  0
   -7.1239    5.6433  -21.8537 C   0  0  0  0  0  0  0  0  0  0  0  0
   -8.2565    5.0111  -22.6071 N   0  0  0  0  0  0  0  0  0  0  0  0
   -8.1237    4.7458  -24.0774 C   0  0  0  0  0  0  0  0  0  0  0  0
   -6.8582    5.1128  -24.7945 O   0  0  0  0  0  0  0  0  0  0  0  0
   -9.0870    4.7702  -22.1365 H   0  0  0  0  0  0  0  0  0  0  0  0
 30 31  1  0  0  0
 31 32  1  0  0  0
 32 33  2  0  0  0
 32 29  1  0  0  0
 29  1  1  0  0  0
  1  2  1  0  0  0
  3  2  1  0  0  0
  3  4  1  0  0  0
  4  5  2  0  0  0
  4  6  1  0  0  0
  6 19  1  0  0  0
 19 20  2  0  0  0
 20 21  1  0  0  0
 21 22  2  0  0  0
 22 23  1  0  0  0
 23 24  2  0  0  0
 24 25  1  0  0  0
 25 26  2  0  0  0
 26 27  1  0  0  0
 27 28  2  0  0  0
  6  7  1  0  0  0
  7  8  1  0  0  0
  8  9  1  0  0  0
  3 10  1  0  0  0
 10 11  2  0  0  0
 11 12  1  0  0  0
 12 13  1  0  0  0
 12 14  2  0  0  0
 14 15  1  0  0  0
 15 16  2  0  0  0
 16 17  1  0  0  0
 17 18  2  0  0  0
 17  1  1  0  0  0
  8  3  1  0  0  0
 16 10  1  0  0  0
 28 19  1  0  0  0
 28 23  1  0  0  0
 31 34  1  0  0  0
M  END
> <minimizedAffinity>
-7.73237

> <CNNscore>
0.3869262040

> <CNNaffinity>
6.1875448227

> <CNN_VS>
2.3941233158

> <CNNaffinity_variance>
0.1334195733

$$$$



 34 38  0  0  0  0  0  0  0  0999 V2000
   -9.1045    2.5483  -24.5279 N   0  0  0  0  0  0  0  0  0  0  0  0
   -8.2002    1.3560  -24.6317 C   0  0  0  0  0  0  0  0  0  0  0  0
   -8.7255   -0.0133  -24.3173 C   0  0  0  0  0  0  0  0  0  0  0  0
   -9.1071   -1.4365  -24.0361 C   0  0  0  0  0  0  0  0  0  0  0  0
  -10.0702   -2.0906  -23.6884 O   0  0  0  0  0  0  0  0  0  0  0  0
   -7.8983   -2.2945  -24.2655 N   0  0  0  0  0  0  0  0  0  0  0  0
   -6.7696   -1.4017  -24.6885 C   0  0  0  0  0  0  0  0  0  0  0  0
   -7.2809    0.0082  -24.7205 C   0  0  0  0  0  0  0  0  0  0  0  0
   -6.4869    1.2257  -25.0907 C   0  0  0  0  0  0  0  0  0  0  0  0
  -10.1551   -0.1905  -23.8990 C   0  0  0  0  0  0  0  0  0  0  0  0
  -10.6804   -1.5598  -23.5846 C   0  0  0  0  0  0  0  0  0  0  0  0
  -12.1100   -1.7369  -23.1664 C   0  0  0  0  0  0  0  0  0  0  0  0
  -12.6353   -3.1063  -22.8520 F   0  0  0  0  0  0  0  0  0  0  0  0
  -13.0143   -0.5446  -23.0626 C   0  0  0  0  0  0  0  0  0  0  0  0
  -12.4890    0.8247  -23.3770 C   0  0  0  0  0  0  0  0  0  0  0  0
  -11.0594    1.0018  -23.7952 C   0  0  0  0  0  0  0  0  0  0  0  0
  -10.5341    2.3712  -24.1097 C   0  0  0  0  0  0  0  0  0  0  0  0
  -11.4383    3.5635  -24.0059 O   0  0  0  0  0  0  0  0  0  0  0  0
   -7.8302   -3.7839  -24.1008 C   0  0  0  0  0  0  0  0  0  0  0  0
   -7.2381   -4.3745  -22.8556 C   0  0  0  0  0  0  0  0  0  0  0  0
   -7.1700   -5.8639  -22.6909 N   0  0  0  0  0  0  0  0  0  0  0  0
   -7.6939   -6.7626  -23.7715 C   0  0  0  0  0  0  0  0  0  0  0  0
   -8.2859   -6.1720  -25.0168 C   0  0  0  0  0  0  0  0  0  0  0  0
   -8.8098   -7.0708  -26.0975 C   0  0  0  0  0  0  0  0  0  0  0  0
   -9.4018   -6.4801  -27.3427 C   0  0  0  0  0  0  0  0  0  0  0  0
   -9.4700   -4.9908  -27.5074 C   0  0  0  0  0  0  0  0  0  0  0  0
   -8.9461   -4.0920  -26.4267 C   0  0  0  0  0  0  0  0  0  0  0  0
   -8.3540   -4.6826  -25.1815 C   0  0  0  0  0  0  0  0  0  0  0  0
   -8.5792    3.9177  -24.8424 C   0  0  0  0  0  0  0  0  0  0  0  0
  -11.3021    6.6496  -25.7764 C   0  0  0  0  0  0  0  0  0  0  0  0
  -10.3973    5.4575  -25.8783 N   0  0  0  0  0  0  0  0  0  0  0  0
   -9.4839    5.1097  -24.7404 C   0  0  0  0  0  0  0  0  0  0  0  0
   -9.4754    5.9540  -23.5005 O   0  0  0  0  0  0  0  0  0  0  0  0
  -10.4029    4.9034  -26.6920 H   0  0  0  0  0  0  0  0  0  0  0  0
 30 31  1  0  0  0
 31 32  1  0  0  0
 32 33  2  0  0  0
 32 29  1  0  0  0
 29  1  1  0  0  0
  1  2  1  0  0  0
  3  2  1  0  0  0
  3  4  1  0  0  0
  4  5  2  0  0  0
  4  6  1  0  0  0
  6 19  1  0  0  0
 19 20  2  0  0  0
 20 21  1  0  0  0
 21 22  2  0  0  0
 22 23  1  0  0  0
 23 24  2  0  0  0
 24 25  1  0  0  0
 25 26  2  0  0  0
 26 27  1  0  0  0
 27 28  2  0  0  0
  6  7  1  0  0  0
  7  8  1  0  0  0
  8  9  1  0  0  0
  3 10  1  0  0  0
 10 11  2  0  0  0
 11 12  1  0  0  0
 12 13  1  0  0  0
 12 14  2  0  0  0
 14 15  1  0  0  0
 15 16  2  0  0  0
 16 17  1  0  0  0
 17 18  2  0  0  0
 17  1  1  0  0  0
  8  3  1  0  0  0
 16 10  1  0  0  0
 28 19  1  0  0  0
 28 23  1  0  0  0
 31 34  1  0  0  0
M  END
> <minimizedAffinity>
-7.58837

> <CNNscore>
0.3098899126

> <CNNaffinity>
6.0579323769

> <CNN_VS>
1.8772921562

> <CNNaffinity_variance>
0.1024118885

$$$$



 34 38  0  0  0  0  0  0  0  0999 V2000
   -9.5892   -2.1340  -23.5912 N   0  0  0  0  0  0  0  0  0  0  0  0
   -8.2232   -2.2047  -22.9755 C   0  0  0  0  0  0  0  0  0  0  0  0
   -7.4778   -0.9426  -22.6572 C   0  0  0  0  0  0  0  0  0  0  0  0
   -6.6166    0.2279  -22.2855 C   0  0  0  0  0  0  0  0  0  0  0  0
   -6.6355    1.4426  -22.3105 O   0  0  0  0  0  0  0  0  0  0  0  0
   -5.3397   -0.3022  -21.7037 N   0  0  0  0  0  0  0  0  0  0  0  0
   -5.4117   -1.8004  -21.7158 C   0  0  0  0  0  0  0  0  0  0  0  0
   -6.7332   -2.1962  -22.3051 C   0  0  0  0  0  0  0  0  0  0  0  0
   -7.2238   -3.5992  -22.5069 C   0  0  0  0  0  0  0  0  0  0  0  0
   -8.0984    0.3903  -22.9545 C   0  0  0  0  0  0  0  0  0  0  0  0
   -7.3530    1.6524  -22.6362 C   0  0  0  0  0  0  0  0  0  0  0  0
   -7.9736    2.9852  -22.9335 C   0  0  0  0  0  0  0  0  0  0  0  0
   -7.2282    4.2475  -22.6152 F   0  0  0  0  0  0  0  0  0  0  0  0
   -9.3396    3.0559  -23.5492 C   0  0  0  0  0  0  0  0  0  0  0  0
  -10.0850    1.7938  -23.8675 C   0  0  0  0  0  0  0  0  0  0  0  0
   -9.4644    0.4610  -23.5702 C   0  0  0  0  0  0  0  0  0  0  0  0
  -10.2098   -0.8012  -23.8885 C   0  0  0  0  0  0  0  0  0  0  0  0
  -11.5758   -0.7306  -24.5042 O   0  0  0  0  0  0  0  0  0  0  0  0
   -4.1923    0.5213  -21.1985 C   0  0  0  0  0  0  0  0  0  0  0  0
   -4.1847    1.0061  -19.7790 C   0  0  0  0  0  0  0  0  0  0  0  0
   -3.0372    1.8296  -19.2738 N   0  0  0  0  0  0  0  0  0  0  0  0
   -1.8974    2.1682  -20.1881 C   0  0  0  0  0  0  0  0  0  0  0  0
   -1.9049    1.6834  -21.6076 C   0  0  0  0  0  0  0  0  0  0  0  0
   -0.7650    2.0221  -22.5219 C   0  0  0  0  0  0  0  0  0  0  0  0
   -0.7726    1.5373  -23.9414 C   0  0  0  0  0  0  0  0  0  0  0  0
   -1.9201    0.7138  -24.4466 C   0  0  0  0  0  0  0  0  0  0  0  0
   -3.0599    0.3751  -23.5323 C   0  0  0  0  0  0  0  0  0  0  0  0
   -3.0524    0.8599  -22.1128 C   0  0  0  0  0  0  0  0  0  0  0  0
  -10.3346   -3.3963  -23.9095 C   0  0  0  0  0  0  0  0  0  0  0  0
  -10.3839   -6.0976  -26.8164 C   0  0  0  0  0  0  0  0  0  0  0  0
  -10.5078   -5.4761  -25.4569 N   0  0  0  0  0  0  0  0  0  0  0  0
  -10.2107   -4.0179  -25.2690 C   0  0  0  0  0  0  0  0  0  0  0  0
   -9.7896   -3.1812  -26.4407 O   0  0  0  0  0  0  0  0  0  0  0  0
  -10.7842   -6.0252  -24.6879 H   0  0  0  0  0  0  0  0  0  0  0  0
 30 31  1  0  0  0
 31 32  1  0  0  0
 32 33  2  0  0  0
 32 29  1  0  0  0
 29  1  1  0  0  0
  1  2  1  0  0  0
  3  2  1  0  0  0
  3  4  1  0  0  0
  4  5  2  0  0  0
  4  6  1  0  0  0
  6 19  1  0  0  0
 19 20  2  0  0  0
 20 21  1  0  0  0
 21 22  2  0  0  0
 22 23  1  0  0  0
 23 24  2  0  0  0
 24 25  1  0  0  0
 25 26  2  0  0  0
 26 27  1  0  0  0
 27 28  2  0  0  0
  6  7  1  0  0  0
  7  8  1  0  0  0
  8  9  1  0  0  0
  3 10  1  0  0  0
 10 11  2  0  0  0
 11 12  1  0  0  0
 12 13  1  0  0  0
 12 14  2  0  0  0
 14 15  1  0  0  0
 15 16  2  0  0  0
 16 17  1  0  0  0
 17 18  2  0  0  0
 17  1  1  0  0  0
  8  3  1  0  0  0
 16 10  1  0  0  0
 28 19  1  0  0  0
 28 23  1  0  0  0
 31 34  1  0  0  0
M  END
> <minimizedAffinity>
-7.36269

> <CNNscore>
0.2430643737

> <CNNaffinity>
5.8669157028

> <CNN_VS>
1.4260381460

> <CNNaffinity_variance>
0.1594554484

$$$$



 34 38  0  0  0  0  0  0  0  0999 V2000
   -7.7075   -3.9568  -26.0267 N   0  0  0  0  0  0  0  0  0  0  0  0
   -7.1891   -3.9984  -24.6197 C   0  0  0  0  0  0  0  0  0  0  0  0
   -6.9813   -2.7226  -23.8589 C   0  0  0  0  0  0  0  0  0  0  0  0
   -6.7246   -1.5357  -22.9783 C   0  0  0  0  0  0  0  0  0  0  0  0
   -6.8019   -0.3234  -23.0043 O   0  0  0  0  0  0  0  0  0  0  0  0
   -6.2132   -2.0380  -21.6607 N   0  0  0  0  0  0  0  0  0  0  0  0
   -6.1539   -3.5353  -21.7269 C   0  0  0  0  0  0  0  0  0  0  0  0
   -6.6286   -3.9584  -23.0855 C   0  0  0  0  0  0  0  0  0  0  0  0
   -6.7323   -5.3696  -23.5832 C   0  0  0  0  0  0  0  0  0  0  0  0
   -7.2919   -1.4049  -24.5050 C   0  0  0  0  0  0  0  0  0  0  0  0
   -7.0842   -0.1290  -23.7442 C   0  0  0  0  0  0  0  0  0  0  0  0
   -7.3948    1.1885  -24.3904 C   0  0  0  0  0  0  0  0  0  0  0  0
   -7.1870    2.4645  -23.6295 F   0  0  0  0  0  0  0  0  0  0  0  0
   -7.9132    1.2302  -25.7973 C   0  0  0  0  0  0  0  0  0  0  0  0
   -8.1210   -0.0457  -26.5581 C   0  0  0  0  0  0  0  0  0  0  0  0
   -7.8103   -1.3633  -25.9120 C   0  0  0  0  0  0  0  0  0  0  0  0
   -8.0181   -2.6392  -26.6728 C   0  0  0  0  0  0  0  0  0  0  0  0
   -8.5365   -2.5976  -28.0798 O   0  0  0  0  0  0  0  0  0  0  0  0
   -5.8288   -1.1915  -20.4835 C   0  0  0  0  0  0  0  0  0  0  0  0
   -6.5819   -1.3161  -19.1923 C   0  0  0  0  0  0  0  0  0  0  0  0
   -6.1974   -0.4696  -18.0151 N   0  0  0  0  0  0  0  0  0  0  0  0
   -5.0598    0.5014  -18.1293 C   0  0  0  0  0  0  0  0  0  0  0  0
   -4.3067    0.6259  -19.4205 C   0  0  0  0  0  0  0  0  0  0  0  0
   -3.1690    1.5970  -19.5346 C   0  0  0  0  0  0  0  0  0  0  0  0
   -2.4160    1.7214  -20.8259 C   0  0  0  0  0  0  0  0  0  0  0  0
   -2.8005    0.8750  -22.0031 C   0  0  0  0  0  0  0  0  0  0  0  0
   -3.9381   -0.0960  -21.8889 C   0  0  0  0  0  0  0  0  0  0  0  0
   -4.6912   -0.2206  -20.5977 C   0  0  0  0  0  0  0  0  0  0  0  0
   -7.9153   -5.2328  -26.7875 C   0  0  0  0  0  0  0  0  0  0  0  0
   -5.0171   -7.8408  -27.5281 C   0  0  0  0  0  0  0  0  0  0  0  0
   -6.1805   -7.1653  -26.8647 N   0  0  0  0  0  0  0  0  0  0  0  0
   -6.7519   -5.9083  -27.4509 C   0  0  0  0  0  0  0  0  0  0  0  0
   -6.1598   -5.3269  -28.7005 O   0  0  0  0  0  0  0  0  0  0  0  0
   -6.5691   -7.5469  -26.0446 H   0  0  0  0  0  0  0  0  0  0  0  0
 30 31  1  0  0  0
 31 32  1  0  0  0
 32 33  2  0  0  0
 32 29  1  0  0  0
 29  1  1  0  0  0
  1  2  1  0  0  0
  3  2  1  0  0  0
  3  4  1  0  0  0
  4  5  2  0  0  0
  4  6  1  0  0  0
  6 19  1  0  0  0
 19 20  2  0  0  0
 20 21  1  0  0  0
 21 22  2  0  0  0
 22 23  1  0  0  0
 23 24  2  0  0  0
 24 25  1  0  0  0
 25 26  2  0  0  0
 26 27  1  0  0  0
 27 28  2  0  0  0
  6  7  1  0  0  0
  7  8  1  0  0  0
  8  9  1  0  0  0
  3 10  1  0  0  0
 10 11  2  0  0  0
 11 12  1  0  0  0
 12 13  1  0  0  0
 12 14  2  0  0  0
 14 15  1  0  0  0
 15 16  2  0  0  0
 16 17  1  0  0  0
 17 18  2  0  0  0
 17  1  1  0  0  0
  8  3  1  0  0  0
 16 10  1  0  0  0
 28 19  1  0  0  0
 28 23  1  0  0  0
 31 34  1  0  0  0
M  END
> <minimizedAffinity>
-7.93380

> <CNNscore>
0.2365869135

> <CNNaffinity>
5.9170293808

> <CNN_VS>
1.3998917341

> <CNNaffinity_variance>
0.0991349146

$$$$



 34 38  0  0  0  0  0  0  0  0999 V2000
   -8.2548   -3.1488  -22.8588 N   0  0  0  0  0  0  0  0  0  0  0  0
   -9.5104   -2.3840  -23.1564 C   0  0  0  0  0  0  0  0  0  0  0  0
   -9.5317   -0.8913  -23.0109 C   0  0  0  0  0  0  0  0  0  0  0  0
   -9.7031    0.5955  -22.9109 C   0  0  0  0  0  0  0  0  0  0  0  0
   -9.0663    1.5884  -22.6195 O   0  0  0  0  0  0  0  0  0  0  0  0
  -11.1137    0.9266  -23.2989 N   0  0  0  0  0  0  0  0  0  0  0  0
  -11.8141   -0.3555  -23.6387 C   0  0  0  0  0  0  0  0  0  0  0  0
  -10.8364   -1.4791  -23.4607 C   0  0  0  0  0  0  0  0  0  0  0  0
  -11.1145   -2.9348  -23.6919 C   0  0  0  0  0  0  0  0  0  0  0  0
   -8.2973   -0.1632  -22.5678 C   0  0  0  0  0  0  0  0  0  0  0  0
   -8.3186    1.3295  -22.4223 C   0  0  0  0  0  0  0  0  0  0  0  0
   -7.0842    2.0575  -21.9792 C   0  0  0  0  0  0  0  0  0  0  0  0
   -7.1054    3.5503  -21.8337 F   0  0  0  0  0  0  0  0  0  0  0  0
   -5.8286    1.2927  -21.6817 C   0  0  0  0  0  0  0  0  0  0  0  0
   -5.8073   -0.2000  -21.8271 C   0  0  0  0  0  0  0  0  0  0  0  0
   -7.0417   -0.9280  -22.2702 C   0  0  0  0  0  0  0  0  0  0  0  0
   -7.0205   -2.4208  -22.4157 C   0  0  0  0  0  0  0  0  0  0  0  0
   -5.7648   -3.1856  -22.1181 O   0  0  0  0  0  0  0  0  0  0  0  0
  -11.7178    2.2990  -23.3399 C   0  0  0  0  0  0  0  0  0  0  0  0
  -12.7926    2.6749  -22.3634 C   0  0  0  0  0  0  0  0  0  0  0  0
  -13.3967    4.0472  -22.4044 N   0  0  0  0  0  0  0  0  0  0  0  0
  -12.9261    5.0437  -23.4220 C   0  0  0  0  0  0  0  0  0  0  0  0
  -11.8513    4.6679  -24.3985 C   0  0  0  0  0  0  0  0  0  0  0  0
  -11.3806    5.6644  -25.4161 C   0  0  0  0  0  0  0  0  0  0  0  0
  -10.3058    5.2885  -26.3925 C   0  0  0  0  0  0  0  0  0  0  0  0
   -9.7017    3.9161  -26.3515 C   0  0  0  0  0  0  0  0  0  0  0  0
  -10.1723    2.9196  -25.3340 C   0  0  0  0  0  0  0  0  0  0  0  0
  -11.2471    3.2955  -24.3575 C   0  0  0  0  0  0  0  0  0  0  0  0
   -8.2336   -4.6416  -23.0043 C   0  0  0  0  0  0  0  0  0  0  0  0
   -4.8651   -6.7396  -23.0430 C   0  0  0  0  0  0  0  0  0  0  0  0
   -6.1012   -6.0523  -22.5432 N   0  0  0  0  0  0  0  0  0  0  0  0
   -6.9976   -5.3290  -23.5040 C   0  0  0  0  0  0  0  0  0  0  0  0
   -6.6579   -5.2929  -24.9647 O   0  0  0  0  0  0  0  0  0  0  0  0
   -6.3241   -6.0760  -21.5846 H   0  0  0  0  0  0  0  0  0  0  0  0
 30 31  1  0  0  0
 31 32  1  0  0  0
 32 33  2  0  0  0
 32 29  1  0  0  0
 29  1  1  0  0  0
  1  2  1  0  0  0
  3  2  1  0  0  0
  3  4  1  0  0  0
  4  5  2  0  0  0
  4  6  1  0  0  0
  6 19  1  0  0  0
 19 20  2  0  0  0
 20 21  1  0  0  0
 21 22  2  0  0  0
 22 23  1  0  0  0
 23 24  2  0  0  0
 24 25  1  0  0  0
 25 26  2  0  0  0
 26 27  1  0  0  0
 27 28  2  0  0  0
  6  7  1  0  0  0
  7  8  1  0  0  0
  8  9  1  0  0  0
  3 10  1  0  0  0
 10 11  2  0  0  0
 11 12  1  0  0  0
 12 13  1  0  0  0
 12 14  2  0  0  0
 14 15  1  0  0  0
 15 16  2  0  0  0
 16 17  1  0  0  0
 17 18  2  0  0  0
 17  1  1  0  0  0
  8  3  1  0  0  0
 16 10  1  0  0  0
 28 19  1  0  0  0
 28 23  1  0  0  0
 31 34  1  0  0  0
M  END
> <minimizedAffinity>
-7.68596

> <CNNscore>
0.2067449391

> <CNNaffinity>
5.9508299828

> <CNN_VS>
1.2303040028

> <CNNaffinity_variance>
0.1542621553

$$$$



 34 38  0  0  0  0  0  0  0  0999 V2000
  -11.5672    3.9247  -24.0500 N   0  0  0  0  0  0  0  0  0  0  0  0
  -10.1884    3.3430  -23.9471 C   0  0  0  0  0  0  0  0  0  0  0  0
  -10.0106    1.8782  -23.6774 C   0  0  0  0  0  0  0  0  0  0  0  0
   -9.6780    0.4396  -23.4130 C   0  0  0  0  0  0  0  0  0  0  0  0
  -10.2332   -0.6229  -23.2152 O   0  0  0  0  0  0  0  0  0  0  0  0
   -8.1842    0.3053  -23.3930 N   0  0  0  0  0  0  0  0  0  0  0  0
   -7.5935    1.6608  -23.6451 C   0  0  0  0  0  0  0  0  0  0  0  0
   -8.7223    2.6329  -23.8208 C   0  0  0  0  0  0  0  0  0  0  0  0
   -8.5865    4.1019  -24.0923 C   0  0  0  0  0  0  0  0  0  0  0  0
  -11.2116    0.9951  -23.5106 C   0  0  0  0  0  0  0  0  0  0  0  0
  -11.0338   -0.4697  -23.2409 C   0  0  0  0  0  0  0  0  0  0  0  0
  -12.2347   -1.3528  -23.0741 C   0  0  0  0  0  0  0  0  0  0  0  0
  -12.0569   -2.8176  -22.8044 F   0  0  0  0  0  0  0  0  0  0  0  0
  -13.6135   -0.7711  -23.1770 C   0  0  0  0  0  0  0  0  0  0  0  0
  -13.7913    0.6937  -23.4467 C   0  0  0  0  0  0  0  0  0  0  0  0
  -12.5904    1.5768  -23.6135 C   0  0  0  0  0  0  0  0  0  0  0  0
  -12.7682    3.0416  -23.8832 C   0  0  0  0  0  0  0  0  0  0  0  0
  -14.1469    3.6233  -23.9861 O   0  0  0  0  0  0  0  0  0  0  0  0
   -7.4160   -0.9621  -23.1617 C   0  0  0  0  0  0  0  0  0  0  0  0
   -7.1897   -1.9194  -24.2941 C   0  0  0  0  0  0  0  0  0  0  0  0
   -6.4215   -3.1868  -24.0628 N   0  0  0  0  0  0  0  0  0  0  0  0
   -5.8796   -3.4969  -22.6989 C   0  0  0  0  0  0  0  0  0  0  0  0
   -6.1059   -2.5397  -21.5664 C   0  0  0  0  0  0  0  0  0  0  0  0
   -5.5639   -2.8498  -20.2025 C   0  0  0  0  0  0  0  0  0  0  0  0
   -5.7903   -1.8925  -19.0701 C   0  0  0  0  0  0  0  0  0  0  0  0
   -6.5585   -0.6251  -19.3015 C   0  0  0  0  0  0  0  0  0  0  0  0
   -7.1004   -0.3150  -20.6653 C   0  0  0  0  0  0  0  0  0  0  0  0
   -6.8741   -1.2723  -21.7978 C   0  0  0  0  0  0  0  0  0  0  0  0
  -11.7450    5.3895  -24.3197 C   0  0  0  0  0  0  0  0  0  0  0  0
  -13.9804    6.3907  -27.4423 C   0  0  0  0  0  0  0  0  0  0  0  0
  -13.5871    5.9226  -26.0725 N   0  0  0  0  0  0  0  0  0  0  0  0
  -12.1383    5.8576  -25.6894 C   0  0  0  0  0  0  0  0  0  0  0  0
  -11.0828    6.2606  -26.6761 O   0  0  0  0  0  0  0  0  0  0  0  0
  -14.2798    5.6581  -25.4250 H   0  0  0  0  0  0  0  0  0  0  0  0
 30 31  1  0  0  0
 31 32  1  0  0  0
 32 33  2  0  0  0
 32 29  1  0  0  0
 29  1  1  0  0  0
  1  2  1  0  0  0
  3  2  1  0  0  0
  3  4  1  0  0  0
  4  5  2  0  0  0
  4  6  1  0  0  0
  6 19  1  0  0  0
 19 20  2  0  0  0
 20 21  1  0  0  0
 21 22  2  0  0  0
 22 23  1  0  0  0
 23 24  2  0  0  0
 24 25  1  0  0  0
 25 26  2  0  0  0
 26 27  1  0  0  0
 27 28  2  0  0  0
  6  7  1  0  0  0
  7  8  1  0  0  0
  8  9  1  0  0  0
  3 10  1  0  0  0
 10 11  2  0  0  0
 11 12  1  0  0  0
 12 13  1  0  0  0
 12 14  2  0  0  0
 14 15  1  0  0  0
 15 16  2  0  0  0
 16 17  1  0  0  0
 17 18  2  0  0  0
 17  1  1  0  0  0
  8  3  1  0  0  0
 16 10  1  0  0  0
 28 19  1  0  0  0
 28 23  1  0  0  0
 31 34  1  0  0  0
M  END
> <minimizedAffinity>
-8.11435

> <CNNscore>
0.2020532340

> <CNNaffinity>
5.9922924042

> <CNN_VS>
1.2107620239

> <CNNaffinity_variance>
0.0909060314

$$$$
