


 30 33  0  0  0  0  0  0  0  0999 V2000
   -7.5441   -1.5399  -22.3683 N   0  0  0  0  0  0  0  0  0  0  0  0
   -8.2432   -0.2372  -22.6216 C   0  0  0  0  0  0  0  0  0  0  0  0
   -8.1177    0.8856  -21.6349 O   0  0  0  0  0  0  0  0  0  0  0  0
   -7.9205   -4.9083  -25.3283 C   0  0  0  0  0  0  0  0  0  0  0  0
   -7.7844   -3.4954  -25.8133 C   0  0  0  0  0  0  0  0  0  0  0  0
   -7.6589   -2.3726  -24.8266 C   0  0  0  0  0  0  0  0  0  0  0  0
   -7.6696   -2.6627  -23.3549 C   0  0  0  0  0  0  0  0  0  0  0  0
   -7.8057   -4.0756  -22.8700 C   0  0  0  0  0  0  0  0  0  0  0  0
   -7.9312   -5.1984  -23.8567 C   0  0  0  0  0  0  0  0  0  0  0  0
   -8.1714   -7.1540  -27.3017 N   0  0  0  0  0  0  0  0  0  0  0  0
   -8.0460   -6.0311  -26.3150 C   0  0  0  0  0  0  0  0  0  0  0  0
   -6.7196   -1.7198  -21.1282 C   0  0  0  0  0  0  0  0  0  0  0  0
   -5.6099   -0.7589  -20.8194 C   0  0  0  0  0  0  0  0  0  0  0  0
   -5.4903   -0.1676  -19.4460 C   0  0  0  0  0  0  0  0  0  0  0  0
   -4.3807    0.7934  -19.1372 C   0  0  0  0  0  0  0  0  0  0  0  0
   -3.3907    1.1630  -20.2019 C   0  0  0  0  0  0  0  0  0  0  0  0
   -3.5103    0.5717  -21.5752 C   0  0  0  0  0  0  0  0  0  0  0  0
   -2.5204    0.9413  -22.6397 Cl  0  0  0  0  0  0  0  0  0  0  0  0
   -4.6200   -0.3892  -21.8839 C   0  0  0  0  0  0  0  0  0  0  0  0
   -9.0678   -0.0573  -23.8617 C   0  0  0  0  0  0  0  0  0  0  0  0
  -10.4697    0.4665  -23.7607 C   0  0  0  0  0  0  0  0  0  0  0  0
  -10.7564    1.9064  -24.0682 C   0  0  0  0  0  0  0  0  0  0  0  0
  -12.1583    2.4302  -23.9672 N   0  0  0  0  0  0  0  0  0  0  0  0
  -13.2736    1.5141  -23.5587 C   0  0  0  0  0  0  0  0  0  0  0  0
  -12.9870    0.0742  -23.2512 C   0  0  0  0  0  0  0  0  0  0  0  0
  -14.1023   -0.8419  -22.8427 C   0  0  0  0  0  0  0  0  0  0  0  0
  -13.8156   -2.2817  -22.5352 C   0  0  0  0  0  0  0  0  0  0  0  0
  -12.4137   -2.8055  -22.6361 C   0  0  0  0  0  0  0  0  0  0  0  0
  -11.2984   -1.8895  -23.0446 C   0  0  0  0  0  0  0  0  0  0  0  0
  -11.5850   -0.4496  -23.3522 C   0  0  0  0  0  0  0  0  0  0  0  0
 10 11  3  0  0  0
 11  4  1  0  0  0
  4  5  2  0  0  0
  5  6  1  0  0  0
  6  7  2  0  0  0
  7  1  1  0  0  0
  1 12  1  0  0  0
 12 13  1  0  0  0
 13 14  2  0  0  0
 14 15  1  0  0  0
 15 16  2  0  0  0
 16 17  1  0  0  0
 17 18  1  0  0  0
 17 19  2  0  0  0
  1  2  1  0  0  0
  2  3  2  0  0  0
  2 20  1  0  0  0
 20 21  1  0  0  0
 21 22  2  0  0  0
 22 23  1  0  0  0
 23 24  2  0  0  0
 24 25  1  0  0  0
 25 26  2  0  0  0
 26 27  1  0  0  0
 27 28  2  0  0  0
 28 29  1  0  0  0
 29 30  2  0  0  0
  7  8  1  0  0  0
  8  9  2  0  0  0
  9  4  1  0  0  0
 19 13  1  0  0  0
 30 21  1  0  0  0
 30 25  1  0  0  0
M  END
> <minimizedAffinity>
-7.41133

> <CNNscore>
0.4194065928

> <CNNaffinity>
5.9885182381

> <CNN_VS>
2.5116240978

> <CNNaffinity_variance>
0.0320552737

$$$$



 30 33  0  0  0  0  0  0  0  0999 V2000
   -9.5982   -2.0083  -22.9789 N   0  0  0  0  0  0  0  0  0  0  0  0
   -8.2814   -1.8162  -22.2868 C   0  0  0  0  0  0  0  0  0  0  0  0
   -7.3536   -2.9805  -22.1034 O   0  0  0  0  0  0  0  0  0  0  0  0
  -12.3816    1.4845  -23.5292 C   0  0  0  0  0  0  0  0  0  0  0  0
  -12.9229    0.0856  -23.5379 C   0  0  0  0  0  0  0  0  0  0  0  0
  -11.9951   -1.0787  -23.3545 C   0  0  0  0  0  0  0  0  0  0  0  0
  -10.5260   -0.8440  -23.1623 C   0  0  0  0  0  0  0  0  0  0  0  0
   -9.9848    0.5549  -23.1536 C   0  0  0  0  0  0  0  0  0  0  0  0
  -10.9127    1.7192  -23.3370 C   0  0  0  0  0  0  0  0  0  0  0  0
  -14.2373    3.8131  -23.8959 N   0  0  0  0  0  0  0  0  0  0  0  0
  -13.3094    2.6488  -23.7126 C   0  0  0  0  0  0  0  0  0  0  0  0
   -9.9872   -3.3647  -23.4877 C   0  0  0  0  0  0  0  0  0  0  0  0
   -9.5632   -3.8015  -24.8586 C   0  0  0  0  0  0  0  0  0  0  0  0
  -10.3046   -4.9022  -25.5579 C   0  0  0  0  0  0  0  0  0  0  0  0
   -9.8805   -5.3389  -26.9288 C   0  0  0  0  0  0  0  0  0  0  0  0
   -8.7151   -4.6750  -27.6005 C   0  0  0  0  0  0  0  0  0  0  0  0
   -7.9737   -3.5744  -26.9012 C   0  0  0  0  0  0  0  0  0  0  0  0
   -6.8084   -2.9106  -27.5728 Cl  0  0  0  0  0  0  0  0  0  0  0  0
   -8.3978   -3.1376  -25.5303 C   0  0  0  0  0  0  0  0  0  0  0  0
   -7.8924   -0.4598  -21.7780 C   0  0  0  0  0  0  0  0  0  0  0  0
   -6.9402   -0.3357  -20.6256 C   0  0  0  0  0  0  0  0  0  0  0  0
   -7.2153   -1.0642  -19.3436 C   0  0  0  0  0  0  0  0  0  0  0  0
   -6.2632   -0.9401  -18.1912 N   0  0  0  0  0  0  0  0  0  0  0  0
   -5.0359   -0.0876  -18.3208 C   0  0  0  0  0  0  0  0  0  0  0  0
   -4.7607    0.6410  -19.6029 C   0  0  0  0  0  0  0  0  0  0  0  0
   -3.5334    1.4935  -19.7325 C   0  0  0  0  0  0  0  0  0  0  0  0
   -3.2582    2.2220  -21.0145 C   0  0  0  0  0  0  0  0  0  0  0  0
   -4.2104    2.0979  -22.1669 C   0  0  0  0  0  0  0  0  0  0  0  0
   -5.4377    1.2454  -22.0373 C   0  0  0  0  0  0  0  0  0  0  0  0
   -5.7128    0.5169  -20.7553 C   0  0  0  0  0  0  0  0  0  0  0  0
 10 11  3  0  0  0
 11  4  1  0  0  0
  4  5  2  0  0  0
  5  6  1  0  0  0
  6  7  2  0  0  0
  7  1  1  0  0  0
  1 12  1  0  0  0
 12 13  1  0  0  0
 13 14  2  0  0  0
 14 15  1  0  0  0
 15 16  2  0  0  0
 16 17  1  0  0  0
 17 18  1  0  0  0
 17 19  2  0  0  0
  1  2  1  0  0  0
  2  3  2  0  0  0
  2 20  1  0  0  0
 20 21  1  0  0  0
 21 22  2  0  0  0
 22 23  1  0  0  0
 23 24  2  0  0  0
 24 25  1  0  0  0
 25 26  2  0  0  0
 26 27  1  0  0  0
 27 28  2  0  0  0
 28 29  1  0  0  0
 29 30  2  0  0  0
  7  8  1  0  0  0
  8  9  2  0  0  0
  9  4  1  0  0  0
 19 13  1  0  0  0
 30 21  1  0  0  0
 30 25  1  0  0  0
M  END
> <minimizedAffinity>
-7.95130

> <CNNscore>
0.3943202496

> <CNNaffinity>
5.9551415443

> <CNN_VS>
2.3482329845

> <CNNaffinity_variance>
0.1202505231

$$$$



 30 33  0  0  0  0  0  0  0  0999 V2000
   -9.7138   -0.9230  -23.1162 N   0  0  0  0  0  0  0  0  0  0  0  0
   -8.7255   -0.4563  -22.0888 C   0  0  0  0  0  0  0  0  0  0  0  0
   -8.9203    0.8654  -21.4067 O   0  0  0  0  0  0  0  0  0  0  0  0
   -9.1295   -4.8880  -25.1623 C   0  0  0  0  0  0  0  0  0  0  0  0
   -7.9434   -4.1279  -24.6471 C   0  0  0  0  0  0  0  0  0  0  0  0
   -8.1382   -2.8063  -23.9651 C   0  0  0  0  0  0  0  0  0  0  0  0
   -9.5191   -2.2446  -23.7982 C   0  0  0  0  0  0  0  0  0  0  0  0
  -10.7052   -3.0047  -24.3134 C   0  0  0  0  0  0  0  0  0  0  0  0
  -10.5104   -4.3264  -24.9955 C   0  0  0  0  0  0  0  0  0  0  0  0
   -8.7401   -7.5314  -26.5265 N   0  0  0  0  0  0  0  0  0  0  0  0
   -8.9348   -6.2097  -25.8444 C   0  0  0  0  0  0  0  0  0  0  0  0
  -10.8970   -0.0679  -23.4615 C   0  0  0  0  0  0  0  0  0  0  0  0
  -10.6916    1.3395  -23.9380 C   0  0  0  0  0  0  0  0  0  0  0  0
   -9.6112    1.6443  -24.9330 C   0  0  0  0  0  0  0  0  0  0  0  0
   -9.4058    3.0516  -25.4096 C   0  0  0  0  0  0  0  0  0  0  0  0
  -10.2808    4.1543  -24.8911 C   0  0  0  0  0  0  0  0  0  0  0  0
  -11.3611    3.8495  -23.8962 C   0  0  0  0  0  0  0  0  0  0  0  0
  -12.2360    4.9521  -23.3778 Cl  0  0  0  0  0  0  0  0  0  0  0  0
  -11.5665    2.4421  -23.4196 C   0  0  0  0  0  0  0  0  0  0  0  0
   -7.5425   -1.3113  -21.7435 C   0  0  0  0  0  0  0  0  0  0  0  0
   -6.6577   -0.9375  -20.5913 C   0  0  0  0  0  0  0  0  0  0  0  0
   -6.8505   -1.5907  -19.2549 C   0  0  0  0  0  0  0  0  0  0  0  0
   -5.9657   -1.2168  -18.1028 N   0  0  0  0  0  0  0  0  0  0  0  0
   -4.8881   -0.1899  -18.2871 C   0  0  0  0  0  0  0  0  0  0  0  0
   -4.6952    0.4634  -19.6236 C   0  0  0  0  0  0  0  0  0  0  0  0
   -3.6177    1.4904  -19.8079 C   0  0  0  0  0  0  0  0  0  0  0  0
   -3.4249    2.1436  -21.1444 C   0  0  0  0  0  0  0  0  0  0  0  0
   -4.3097    1.7697  -22.2965 C   0  0  0  0  0  0  0  0  0  0  0  0
   -5.3873    0.7427  -22.1122 C   0  0  0  0  0  0  0  0  0  0  0  0
   -5.5800    0.0896  -20.7757 C   0  0  0  0  0  0  0  0  0  0  0  0
 10 11  3  0  0  0
 11  4  1  0  0  0
  4  5  2  0  0  0
  5  6  1  0  0  0
  6  7  2  0  0  0
  7  1  1  0  0  0
  1 12  1  0  0  0
 12 13  1  0  0  0
 13 14  2  0  0  0
 14 15  1  0  0  0
 15 16  2  0  0  0
 16 17  1  0  0  0
 17 18  1  0  0  0
 17 19  2  0  0  0
  1  2  1  0  0  0
  2  3  2  0  0  0
  2 20  1  0  0  0
 20 21  1  0  0  0
 21 22  2  0  0  0
 22 23  1  0  0  0
 23 24  2  0  0  0
 24 25  1  0  0  0
 25 26  2  0  0  0
 26 27  1  0  0  0
 27 28  2  0  0  0
 28 29  1  0  0  0
 29 30  2  0  0  0
  7  8  1  0  0  0
  8  9  2  0  0  0
  9  4  1  0  0  0
 19 13  1  0  0  0
 30 21  1  0  0  0
 30 25  1  0  0  0
M  END
> <minimizedAffinity>
-7.66673

> <CNNscore>
0.3672672510

> <CNNaffinity>
5.7594628334

> <CNN_VS>
2.1152620316

> <CNNaffinity_variance>
0.3339949250

$$$$



 30 33  0  0  0  0  0  0  0  0999 V2000
   -9.0852   -1.3656  -23.2689 N   0  0  0  0  0  0  0  0  0  0  0  0
   -8.3181   -0.7061  -22.1615 C   0  0  0  0  0  0  0  0  0  0  0  0
   -8.8905    0.4913  -21.4622 O   0  0  0  0  0  0  0  0  0  0  0  0
   -7.3681   -4.9574  -25.3667 C   0  0  0  0  0  0  0  0  0  0  0  0
   -7.2211   -3.5933  -25.9731 C   0  0  0  0  0  0  0  0  0  0  0  0
   -7.7934   -2.3961  -25.2739 C   0  0  0  0  0  0  0  0  0  0  0  0
   -8.5128   -2.5629  -23.9682 C   0  0  0  0  0  0  0  0  0  0  0  0
   -8.6599   -3.9269  -23.3618 C   0  0  0  0  0  0  0  0  0  0  0  0
   -8.0875   -5.1242  -24.0611 C   0  0  0  0  0  0  0  0  0  0  0  0
   -6.2234   -7.3520  -26.7653 N   0  0  0  0  0  0  0  0  0  0  0  0
   -6.7958   -6.1546  -26.0660 C   0  0  0  0  0  0  0  0  0  0  0  0
  -10.4247   -0.8279  -23.6772 C   0  0  0  0  0  0  0  0  0  0  0  0
  -10.6030    0.6431  -23.9103 C   0  0  0  0  0  0  0  0  0  0  0  0
   -9.6146    1.3943  -24.7524 C   0  0  0  0  0  0  0  0  0  0  0  0
   -9.7929    2.8653  -24.9855 C   0  0  0  0  0  0  0  0  0  0  0  0
  -10.9596    3.5852  -24.3765 C   0  0  0  0  0  0  0  0  0  0  0  0
  -11.9479    2.8340  -23.5345 C   0  0  0  0  0  0  0  0  0  0  0  0
  -13.1144    3.5539  -22.9256 Cl  0  0  0  0  0  0  0  0  0  0  0  0
  -11.7696    1.3630  -23.3014 C   0  0  0  0  0  0  0  0  0  0  0  0
   -6.9786   -1.2437  -21.7532 C   0  0  0  0  0  0  0  0  0  0  0  0
   -6.2865   -0.6923  -20.5421 C   0  0  0  0  0  0  0  0  0  0  0  0
   -6.8453   -0.9538  -19.1749 C   0  0  0  0  0  0  0  0  0  0  0  0
   -6.1532   -0.4024  -17.9637 N   0  0  0  0  0  0  0  0  0  0  0  0
   -4.9023    0.4105  -18.1197 C   0  0  0  0  0  0  0  0  0  0  0  0
   -4.3435    0.6721  -19.4870 C   0  0  0  0  0  0  0  0  0  0  0  0
   -3.0926    1.4850  -19.6430 C   0  0  0  0  0  0  0  0  0  0  0  0
   -2.5338    1.7466  -21.0103 C   0  0  0  0  0  0  0  0  0  0  0  0
   -3.2259    1.1951  -22.2214 C   0  0  0  0  0  0  0  0  0  0  0  0
   -4.4768    0.3822  -22.0654 C   0  0  0  0  0  0  0  0  0  0  0  0
   -5.0356    0.1207  -20.6982 C   0  0  0  0  0  0  0  0  0  0  0  0
 10 11  3  0  0  0
 11  4  1  0  0  0
  4  5  2  0  0  0
  5  6  1  0  0  0
  6  7  2  0  0  0
  7  1  1  0  0  0
  1 12  1  0  0  0
 12 13  1  0  0  0
 13 14  2  0  0  0
 14 15  1  0  0  0
 15 16  2  0  0  0
 16 17  1  0  0  0
 17 18  1  0  0  0
 17 19  2  0  0  0
  1  2  1  0  0  0
  2  3  2  0  0  0
  2 20  1  0  0  0
 20 21  1  0  0  0
 21 22  2  0  0  0
 22 23  1  0  0  0
 23 24  2  0  0  0
 24 25  1  0  0  0
 25 26  2  0  0  0
 26 27  1  0  0  0
 27 28  2  0  0  0
 28 29  1  0  0  0
 29 30  2  0  0  0
  7  8  1  0  0  0
  8  9  2  0  0  0
  9  4  1  0  0  0
 19 13  1  0  0  0
 30 21  1  0  0  0
 30 25  1  0  0  0
M  END
> <minimizedAffinity>
-7.75445

> <CNNscore>
0.3544850349

> <CNNaffinity>
5.7473568916

> <CNN_VS>
2.0373520851

> <CNNaffinity_variance>
0.2372280359

$$$$



 30 33  0  0  0  0  0  0  0  0999 V2000
   -9.9194   -1.0750  -22.8232 N   0  0  0  0  0  0  0  0  0  0  0  0
  -10.7766   -0.1149  -23.5935 C   0  0  0  0  0  0  0  0  0  0  0  0
  -12.0229   -0.6006  -24.2725 O   0  0  0  0  0  0  0  0  0  0  0  0
   -6.1807    0.3820  -20.7862 C   0  0  0  0  0  0  0  0  0  0  0  0
   -6.6120    0.9913  -22.0872 C   0  0  0  0  0  0  0  0  0  0  0  0
   -7.8583    0.5057  -22.7662 C   0  0  0  0  0  0  0  0  0  0  0  0
   -8.6732   -0.5894  -22.1442 C   0  0  0  0  0  0  0  0  0  0  0  0
   -8.2418   -1.1987  -20.8432 C   0  0  0  0  0  0  0  0  0  0  0  0
   -6.9955   -0.7130  -20.1642 C   0  0  0  0  0  0  0  0  0  0  0  0
   -3.6882    1.3532  -19.4282 N   0  0  0  0  0  0  0  0  0  0  0  0
   -4.9345    0.8676  -20.1073 C   0  0  0  0  0  0  0  0  0  0  0  0
  -10.3085   -2.5208  -22.7319 C   0  0  0  0  0  0  0  0  0  0  0  0
   -9.7761   -3.5053  -23.7306 C   0  0  0  0  0  0  0  0  0  0  0  0
  -10.5827   -3.8498  -24.9475 C   0  0  0  0  0  0  0  0  0  0  0  0
  -10.0503   -4.8342  -25.9462 C   0  0  0  0  0  0  0  0  0  0  0  0
   -8.7112   -5.4742  -25.7279 C   0  0  0  0  0  0  0  0  0  0  0  0
   -7.9047   -5.1297  -24.5111 C   0  0  0  0  0  0  0  0  0  0  0  0
   -6.5658   -5.7696  -24.2929 Cl  0  0  0  0  0  0  0  0  0  0  0  0
   -8.4371   -4.1452  -23.5124 C   0  0  0  0  0  0  0  0  0  0  0  0
  -10.3876    1.3309  -23.6848 C   0  0  0  0  0  0  0  0  0  0  0  0
  -11.4172    2.3998  -23.4674 C   0  0  0  0  0  0  0  0  0  0  0  0
  -12.4666    2.2264  -22.4098 C   0  0  0  0  0  0  0  0  0  0  0  0
  -13.4962    3.2953  -22.1923 N   0  0  0  0  0  0  0  0  0  0  0  0
  -13.4764    4.5377  -23.0326 C   0  0  0  0  0  0  0  0  0  0  0  0
  -12.4270    4.7112  -24.0903 C   0  0  0  0  0  0  0  0  0  0  0  0
  -12.4073    5.9536  -24.9305 C   0  0  0  0  0  0  0  0  0  0  0  0
  -11.3579    6.1270  -25.9882 C   0  0  0  0  0  0  0  0  0  0  0  0
  -10.3283    5.0581  -26.2056 C   0  0  0  0  0  0  0  0  0  0  0  0
  -10.3480    3.8157  -25.3654 C   0  0  0  0  0  0  0  0  0  0  0  0
  -11.3974    3.6423  -24.3077 C   0  0  0  0  0  0  0  0  0  0  0  0
 10 11  3  0  0  0
 11  4  1  0  0  0
  4  5  2  0  0  0
  5  6  1  0  0  0
  6  7  2  0  0  0
  7  1  1  0  0  0
  1 12  1  0  0  0
 12 13  1  0  0  0
 13 14  2  0  0  0
 14 15  1  0  0  0
 15 16  2  0  0  0
 16 17  1  0  0  0
 17 18  1  0  0  0
 17 19  2  0  0  0
  1  2  1  0  0  0
  2  3  2  0  0  0
  2 20  1  0  0  0
 20 21  1  0  0  0
 21 22  2  0  0  0
 22 23  1  0  0  0
 23 24  2  0  0  0
 24 25  1  0  0  0
 25 26  2  0  0  0
 26 27  1  0  0  0
 27 28  2  0  0  0
 28 29  1  0  0  0
 29 30  2  0  0  0
  7  8  1  0  0  0
  8  9  2  0  0  0
  9  4  1  0  0  0
 19 13  1  0  0  0
 30 21  1  0  0  0
 30 25  1  0  0  0
M  END
> <minimizedAffinity>
-7.69477

> <CNNscore>
0.3465725482

> <CNNaffinity>
5.7847023010

> <CNN_VS>
2.0048189163

> <CNNaffinity_variance>
0.2059870064

$$$$



 30 33  0  0  0  0  0  0  0  0999 V2000
   -9.5760   -2.0982  -22.9448 N   0  0  0  0  0  0  0  0  0  0  0  0
   -8.2534   -1.8904  -22.2685 C   0  0  0  0  0  0  0  0  0  0  0  0
   -7.3225   -3.0497  -22.0695 O   0  0  0  0  0  0  0  0  0  0  0  0
  -12.3687    1.3795  -23.5419 C   0  0  0  0  0  0  0  0  0  0  0  0
  -12.9192   -0.0086  -23.3998 C   0  0  0  0  0  0  0  0  0  0  0  0
  -11.9883   -1.1678  -23.2008 C   0  0  0  0  0  0  0  0  0  0  0  0
  -10.5069   -0.9390  -23.1439 C   0  0  0  0  0  0  0  0  0  0  0  0
   -9.9565    0.4492  -23.2859 C   0  0  0  0  0  0  0  0  0  0  0  0
  -10.8874    1.6084  -23.4849 C   0  0  0  0  0  0  0  0  0  0  0  0
  -14.2305    3.6980  -23.9400 N   0  0  0  0  0  0  0  0  0  0  0  0
  -13.2996    2.5387  -23.7409 C   0  0  0  0  0  0  0  0  0  0  0  0
   -9.9678   -3.4652  -23.4222 C   0  0  0  0  0  0  0  0  0  0  0  0
   -9.3593   -4.0256  -24.6735 C   0  0  0  0  0  0  0  0  0  0  0  0
   -9.7751   -3.4936  -26.0130 C   0  0  0  0  0  0  0  0  0  0  0  0
   -9.1667   -4.0539  -27.2643 C   0  0  0  0  0  0  0  0  0  0  0  0
   -8.1424   -5.1463  -27.1761 C   0  0  0  0  0  0  0  0  0  0  0  0
   -7.7267   -5.6782  -25.8367 C   0  0  0  0  0  0  0  0  0  0  0  0
   -6.7024   -6.7705  -25.7486 Cl  0  0  0  0  0  0  0  0  0  0  0  0
   -8.3351   -5.1179  -24.5854 C   0  0  0  0  0  0  0  0  0  0  0  0
   -7.8616   -0.5235  -21.7911 C   0  0  0  0  0  0  0  0  0  0  0  0
   -6.9200   -0.3748  -20.6330 C   0  0  0  0  0  0  0  0  0  0  0  0
   -7.2051   -1.0785  -19.3394 C   0  0  0  0  0  0  0  0  0  0  0  0
   -6.2634   -0.9298  -18.1813 N   0  0  0  0  0  0  0  0  0  0  0  0
   -5.0367   -0.0774  -18.3168 C   0  0  0  0  0  0  0  0  0  0  0  0
   -4.7515    0.6264  -19.6105 C   0  0  0  0  0  0  0  0  0  0  0  0
   -3.5248    1.4789  -19.7460 C   0  0  0  0  0  0  0  0  0  0  0  0
   -3.2397    2.1826  -21.0395 C   0  0  0  0  0  0  0  0  0  0  0  0
   -4.1814    2.0339  -22.1976 C   0  0  0  0  0  0  0  0  0  0  0  0
   -5.4081    1.1815  -22.0622 C   0  0  0  0  0  0  0  0  0  0  0  0
   -5.6932    0.4777  -20.7686 C   0  0  0  0  0  0  0  0  0  0  0  0
 10 11  3  0  0  0
 11  4  1  0  0  0
  4  5  2  0  0  0
  5  6  1  0  0  0
  6  7  2  0  0  0
  7  1  1  0  0  0
  1 12  1  0  0  0
 12 13  1  0  0  0
 13 14  2  0  0  0
 14 15  1  0  0  0
 15 16  2  0  0  0
 16 17  1  0  0  0
 17 18  1  0  0  0
 17 19  2  0  0  0
  1  2  1  0  0  0
  2  3  2  0  0  0
  2 20  1  0  0  0
 20 21  1  0  0  0
 21 22  2  0  0  0
 22 23  1  0  0  0
 23 24  2  0  0  0
 24 25  1  0  0  0
 25 26  2  0  0  0
 26 27  1  0  0  0
 27 28  2  0  0  0
 28 29  1  0  0  0
 29 30  2  0  0  0
  7  8  1  0  0  0
  8  9  2  0  0  0
  9  4  1  0  0  0
 19 13  1  0  0  0
 30 21  1  0  0  0
 30 25  1  0  0  0
M  END
> <minimizedAffinity>
-8.15283

> <CNNscore>
0.3151881099

> <CNNaffinity>
5.8714814186

> <CNN_VS>
1.8506211042

> <CNNaffinity_variance>
0.1974458247

$$$$



 30 33  0  0  0  0  0  0  0  0999 V2000
   -8.4323   -1.6933  -23.7435 N   0  0  0  0  0  0  0  0  0  0  0  0
   -7.6488   -1.9399  -22.4884 C   0  0  0  0  0  0  0  0  0  0  0  0
   -6.5035   -2.9086  -22.4974 O   0  0  0  0  0  0  0  0  0  0  0  0
  -11.8680    1.2128  -23.7168 C   0  0  0  0  0  0  0  0  0  0  0  0
  -10.4735    1.7024  -23.9733 C   0  0  0  0  0  0  0  0  0  0  0  0
   -9.3283    0.7337  -23.9822 C   0  0  0  0  0  0  0  0  0  0  0  0
   -9.5775   -0.7246  -23.7346 C   0  0  0  0  0  0  0  0  0  0  0  0
  -10.9720   -1.2142  -23.4782 C   0  0  0  0  0  0  0  0  0  0  0  0
  -12.1172   -0.2454  -23.4693 C   0  0  0  0  0  0  0  0  0  0  0  0
  -14.1584    3.1503  -23.6990 N   0  0  0  0  0  0  0  0  0  0  0  0
  -13.0132    2.1815  -23.7079 C   0  0  0  0  0  0  0  0  0  0  0  0
   -8.0706   -2.4154  -25.0076 C   0  0  0  0  0  0  0  0  0  0  0  0
   -8.3595   -3.8811  -25.1430 C   0  0  0  0  0  0  0  0  0  0  0  0
   -7.5701   -4.8778  -24.3469 C   0  0  0  0  0  0  0  0  0  0  0  0
   -7.8591   -6.3434  -24.4823 C   0  0  0  0  0  0  0  0  0  0  0  0
   -8.9373   -6.8124  -25.4137 C   0  0  0  0  0  0  0  0  0  0  0  0
   -9.7266   -5.8158  -26.2097 C   0  0  0  0  0  0  0  0  0  0  0  0
  -10.8048   -6.2848  -27.1410 Cl  0  0  0  0  0  0  0  0  0  0  0  0
   -9.4377   -4.3501  -26.0743 C   0  0  0  0  0  0  0  0  0  0  0  0
   -8.0105   -1.2178  -21.2244 C   0  0  0  0  0  0  0  0  0  0  0  0
   -6.9335   -0.7778  -20.2776 C   0  0  0  0  0  0  0  0  0  0  0  0
   -6.8228   -1.4096  -18.9217 C   0  0  0  0  0  0  0  0  0  0  0  0
   -5.7458   -0.9696  -17.9749 N   0  0  0  0  0  0  0  0  0  0  0  0
   -4.7795    0.1023  -18.3840 C   0  0  0  0  0  0  0  0  0  0  0  0
   -4.8902    0.7342  -19.7399 C   0  0  0  0  0  0  0  0  0  0  0  0
   -3.9239    1.8060  -20.1490 C   0  0  0  0  0  0  0  0  0  0  0  0
   -4.0346    2.4378  -21.5049 C   0  0  0  0  0  0  0  0  0  0  0  0
   -5.1116    1.9978  -22.4517 C   0  0  0  0  0  0  0  0  0  0  0  0
   -6.0779    0.9260  -22.0426 C   0  0  0  0  0  0  0  0  0  0  0  0
   -5.9672    0.2941  -20.6867 C   0  0  0  0  0  0  0  0  0  0  0  0
 10 11  3  0  0  0
 11  4  1  0  0  0
  4  5  2  0  0  0
  5  6  1  0  0  0
  6  7  2  0  0  0
  7  1  1  0  0  0
  1 12  1  0  0  0
 12 13  1  0  0  0
 13 14  2  0  0  0
 14 15  1  0  0  0
 15 16  2  0  0  0
 16 17  1  0  0  0
 17 18  1  0  0  0
 17 19  2  0  0  0
  1  2  1  0  0  0
  2  3  2  0  0  0
  2 20  1  0  0  0
 20 21  1  0  0  0
 21 22  2  0  0  0
 22 23  1  0  0  0
 23 24  2  0  0  0
 24 25  1  0  0  0
 25 26  2  0  0  0
 26 27  1  0  0  0
 27 28  2  0  0  0
 28 29  1  0  0  0
 29 30  2  0  0  0
  7  8  1  0  0  0
  8  9  2  0  0  0
  9  4  1  0  0  0
 19 13  1  0  0  0
 30 21  1  0  0  0
 30 25  1  0  0  0
M  END
> <minimizedAffinity>
-7.92761

> <CNNscore>
0.2884780765

> <CNNaffinity>
5.7536859512

> <CNN_VS>
1.6598122120

> <CNNaffinity_variance>
0.3378719687

$$$$



 30 33  0  0  0  0  0  0  0  0999 V2000
   -7.1901   -2.0784  -22.1943 N   0  0  0  0  0  0  0  0  0  0  0  0
   -8.1015   -0.8939  -22.3220 C   0  0  0  0  0  0  0  0  0  0  0  0
   -8.1412    0.1421  -21.2379 O   0  0  0  0  0  0  0  0  0  0  0  0
   -7.0708   -5.1864  -25.4465 C   0  0  0  0  0  0  0  0  0  0  0  0
   -6.1681   -3.9905  -25.5184 C   0  0  0  0  0  0  0  0  0  0  0  0
   -6.2078   -2.9546  -24.4343 C   0  0  0  0  0  0  0  0  0  0  0  0
   -7.1503   -3.1144  -23.2783 C   0  0  0  0  0  0  0  0  0  0  0  0
   -8.0530   -4.3102  -23.2064 C   0  0  0  0  0  0  0  0  0  0  0  0
   -8.0132   -5.3462  -24.2905 C   0  0  0  0  0  0  0  0  0  0  0  0
   -6.9912   -7.2583  -27.6146 N   0  0  0  0  0  0  0  0  0  0  0  0
   -7.0310   -6.2223  -26.5305 C   0  0  0  0  0  0  0  0  0  0  0  0
   -6.3184   -2.2269  -20.9826 C   0  0  0  0  0  0  0  0  0  0  0  0
   -5.4378   -1.0928  -20.5487 C   0  0  0  0  0  0  0  0  0  0  0  0
   -5.4810   -0.6106  -19.1289 C   0  0  0  0  0  0  0  0  0  0  0  0
   -4.6003    0.5236  -18.6950 C   0  0  0  0  0  0  0  0  0  0  0  0
   -3.6766    1.1754  -19.6808 C   0  0  0  0  0  0  0  0  0  0  0  0
   -3.6334    0.6932  -21.1005 C   0  0  0  0  0  0  0  0  0  0  0  0
   -2.7097    1.3450  -22.0862 Cl  0  0  0  0  0  0  0  0  0  0  0  0
   -4.5141   -0.4409  -21.5344 C   0  0  0  0  0  0  0  0  0  0  0  0
   -8.9731   -0.7454  -23.5336 C   0  0  0  0  0  0  0  0  0  0  0  0
  -10.4649   -0.6992  -23.3833 C   0  0  0  0  0  0  0  0  0  0  0  0
  -11.2212   -1.9435  -23.0234 C   0  0  0  0  0  0  0  0  0  0  0  0
  -12.7130   -1.8974  -22.8731 N   0  0  0  0  0  0  0  0  0  0  0  0
  -13.4483   -0.6069  -23.0827 C   0  0  0  0  0  0  0  0  0  0  0  0
  -12.6920    0.6374  -23.4427 C   0  0  0  0  0  0  0  0  0  0  0  0
  -13.4273    1.9279  -23.6523 C   0  0  0  0  0  0  0  0  0  0  0  0
  -12.6709    3.1722  -24.0121 C   0  0  0  0  0  0  0  0  0  0  0  0
  -11.1792    3.1260  -24.1624 C   0  0  0  0  0  0  0  0  0  0  0  0
  -10.4438    1.8356  -23.9528 C   0  0  0  0  0  0  0  0  0  0  0  0
  -11.2002    0.5913  -23.5929 C   0  0  0  0  0  0  0  0  0  0  0  0
 10 11  3  0  0  0
 11  4  1  0  0  0
  4  5  2  0  0  0
  5  6  1  0  0  0
  6  7  2  0  0  0
  7  1  1  0  0  0
  1 12  1  0  0  0
 12 13  1  0  0  0
 13 14  2  0  0  0
 14 15  1  0  0  0
 15 16  2  0  0  0
 16 17  1  0  0  0
 17 18  1  0  0  0
 17 19  2  0  0  0
  1  2  1  0  0  0
  2  3  2  0  0  0
  2 20  1  0  0  0
 20 21  1  0  0  0
 21 22  2  0  0  0
 22 23  1  0  0  0
 23 24  2  0  0  0
 24 25  1  0  0  0
 25 26  2  0  0  0
 26 27  1  0  0  0
 27 28  2  0  0  0
 28 29  1  0  0  0
 29 30  2  0  0  0
  7  8  1  0  0  0
  8  9  2  0  0  0
  9  4  1  0  0  0
 19 13  1  0  0  0
 30 21  1  0  0  0
 30 25  1  0  0  0
M  END
> <minimizedAffinity>
-7.82882

> <CNNscore>
0.2709925771

> <CNNaffinity>
5.7274408340

> <CNN_VS>
1.5520939827

> <CNNaffinity_variance>
0.1577411741

$$$$



 30 33  0  0  0  0  0  0  0  0999 V2000
   -8.2080   -0.2501  -24.1087 N   0  0  0  0  0  0  0  0  0  0  0  0
   -7.6996   -1.1438  -25.2009 C   0  0  0  0  0  0  0  0  0  0  0  0
   -8.3104   -1.0778  -26.5693 O   0  0  0  0  0  0  0  0  0  0  0  0
   -6.3756   -0.4482  -20.0035 C   0  0  0  0  0  0  0  0  0  0  0  0
   -5.7370    0.3911  -21.0701 C   0  0  0  0  0  0  0  0  0  0  0  0
   -6.3477    0.4571  -22.4385 C   0  0  0  0  0  0  0  0  0  0  0  0
   -7.5972   -0.3161  -22.7403 C   0  0  0  0  0  0  0  0  0  0  0  0
   -8.2358   -1.1554  -21.6737 C   0  0  0  0  0  0  0  0  0  0  0  0
   -7.6250   -1.2214  -20.3052 C   0  0  0  0  0  0  0  0  0  0  0  0
   -5.1540   -0.5803  -17.2666 N   0  0  0  0  0  0  0  0  0  0  0  0
   -5.7649   -0.5143  -18.6351 C   0  0  0  0  0  0  0  0  0  0  0  0
   -9.3271    0.7097  -24.3850 C   0  0  0  0  0  0  0  0  0  0  0  0
  -10.7255    0.3741  -23.9585 C   0  0  0  0  0  0  0  0  0  0  0  0
  -11.7911    1.4296  -23.9839 C   0  0  0  0  0  0  0  0  0  0  0  0
  -13.1894    1.0940  -23.5574 C   0  0  0  0  0  0  0  0  0  0  0  0
  -13.5222   -0.2972  -23.1055 C   0  0  0  0  0  0  0  0  0  0  0  0
  -12.4567   -1.3526  -23.0802 C   0  0  0  0  0  0  0  0  0  0  0  0
  -12.7895   -2.7436  -22.6283 Cl  0  0  0  0  0  0  0  0  0  0  0  0
  -11.0583   -1.0169  -23.5067 C   0  0  0  0  0  0  0  0  0  0  0  0
   -6.5805   -2.1036  -24.9246 C   0  0  0  0  0  0  0  0  0  0  0  0
   -6.8788   -3.4610  -24.3602 C   0  0  0  0  0  0  0  0  0  0  0  0
   -6.4906   -3.7882  -22.9488 C   0  0  0  0  0  0  0  0  0  0  0  0
   -6.7888   -5.1456  -22.3843 N   0  0  0  0  0  0  0  0  0  0  0  0
   -7.4752   -6.1758  -23.2314 C   0  0  0  0  0  0  0  0  0  0  0  0
   -7.8634   -5.8486  -24.6429 C   0  0  0  0  0  0  0  0  0  0  0  0
   -8.5498   -6.8789  -25.4899 C   0  0  0  0  0  0  0  0  0  0  0  0
   -8.9379   -6.5517  -26.9014 C   0  0  0  0  0  0  0  0  0  0  0  0
   -8.6397   -5.1943  -27.4658 C   0  0  0  0  0  0  0  0  0  0  0  0
   -7.9533   -4.1641  -26.6188 C   0  0  0  0  0  0  0  0  0  0  0  0
   -7.5652   -4.4913  -25.2073 C   0  0  0  0  0  0  0  0  0  0  0  0
 10 11  3  0  0  0
 11  4  1  0  0  0
  4  5  2  0  0  0
  5  6  1  0  0  0
  6  7  2  0  0  0
  7  1  1  0  0  0
  1 12  1  0  0  0
 12 13  1  0  0  0
 13 14  2  0  0  0
 14 15  1  0  0  0
 15 16  2  0  0  0
 16 17  1  0  0  0
 17 18  1  0  0  0
 17 19  2  0  0  0
  1  2  1  0  0  0
  2  3  2  0  0  0
  2 20  1  0  0  0
 20 21  1  0  0  0
 21 22  2  0  0  0
 22 23  1  0  0  0
 23 24  2  0  0  0
 24 25  1  0  0  0
 25 26  2  0  0  0
 26 27  1  0  0  0
 27 28  2  0  0  0
 28 29  1  0  0  0
 29 30  2  0  0  0
  7  8  1  0  0  0
  8  9  2  0  0  0
  9  4  1  0  0  0
 19 13  1  0  0  0
 30 21  1  0  0  0
 30 25  1  0  0  0
M  END
> <minimizedAffinity>
-7.06170

> <CNNscore>
0.2638419867

> <CNNaffinity>
6.0089716911

> <CNN_VS>
1.5854190588

> <CNNaffinity_variance>
0.1921131015

$$$$
