


 25 28  0  0  0  0  0  0  0  0999 V2000
    7.5111   -1.1238   21.2197 O   0  0  0  0  0  0  0  0  0  0  0  0
    8.0840   -1.5760   22.5302 C   0  0  0  0  0  0  0  0  0  0  0  0
    7.2375   -1.5484   23.7682 N   0  0  0  0  0  0  0  0  0  0  0  0
    5.8094   -1.0970   23.8500 C   0  0  0  0  0  0  0  0  0  0  0  0
    5.3597   -1.2370   25.2742 C   0  0  0  0  0  0  0  0  0  0  0  0
    6.5100   -1.7750   26.0726 C   0  0  0  0  0  0  0  0  0  0  0  0
    7.6705   -1.9675   25.1419 C   0  0  0  0  0  0  0  0  0  0  0  0
    9.0260   -2.4876   25.5187 C   0  0  0  0  0  0  0  0  0  0  0  0
    9.2479   -3.9636   25.6686 C   0  0  0  0  0  0  0  0  0  0  0  0
   10.6033   -4.4838   26.0454 C   0  0  0  0  0  0  0  0  0  0  0  0
   11.7370   -3.5281   26.2724 C   0  0  0  0  0  0  0  0  0  0  0  0
   11.5151   -2.0522   26.1225 C   0  0  0  0  0  0  0  0  0  0  0  0
   12.6487   -1.0965   26.3495 F   0  0  0  0  0  0  0  0  0  0  0  0
   10.1596   -1.5320   25.7457 C   0  0  0  0  0  0  0  0  0  0  0  0
    9.5034   -2.0556   22.6027 C   0  0  0  0  0  0  0  0  0  0  0  0
   10.6302   -1.0656   22.6088 C   0  0  0  0  0  0  0  0  0  0  0  0
   12.0427   -1.5359   22.4252 C   0  0  0  0  0  0  0  0  0  0  0  0
   13.1696   -0.5459   22.4313 N   0  0  0  0  0  0  0  0  0  0  0  0
   12.8840    0.9143   22.6210 C   0  0  0  0  0  0  0  0  0  0  0  0
   11.4715    1.3847   22.8047 C   0  0  0  0  0  0  0  0  0  0  0  0
   11.1859    2.8449   22.9944 C   0  0  0  0  0  0  0  0  0  0  0  0
    9.7734    3.3152   23.1781 C   0  0  0  0  0  0  0  0  0  0  0  0
    8.6466    2.3252   23.1719 C   0  0  0  0  0  0  0  0  0  0  0  0
    8.9321    0.8649   22.9822 C   0  0  0  0  0  0  0  0  0  0  0  0
   10.3446    0.3947   22.7986 C   0  0  0  0  0  0  0  0  0  0  0  0
  1  2  2  0  0  0
  2 15  1  0  0  0
 15 16  1  0  0  0
 16 17  2  0  0  0
 17 18  1  0  0  0
 18 19  2  0  0  0
 19 20  1  0  0  0
 20 21  2  0  0  0
 21 22  1  0  0  0
 22 23  2  0  0  0
 23 24  1  0  0  0
 24 25  2  0  0  0
  2  3  1  0  0  0
  3  4  1  0  0  0
  4  5  1  0  0  0
  5  6  1  0  0  0
  6  7  1  0  0  0
  7  8  1  0  0  0
  8  9  2  0  0  0
  9 10  1  0  0  0
 10 11  2  0  0  0
 11 12  1  0  0  0
 12 13  1  0  0  0
 12 14  2  0  0  0
 25 16  1  0  0  0
  7  3  1  0  0  0
 14  8  1  0  0  0
 25 20  1  0  0  0
M  END
> <minimizedAffinity>
-7.38124

> <CNNscore>
0.6683252454

> <CNNaffinity>
5.8934035301

> <CNN_VS>
3.9387104511

> <CNNaffinity_variance>
0.1079073697

$$$$



 25 28  0  0  0  0  0  0  0  0999 V2000
    5.1974   -2.7554   21.2558 O   0  0  0  0  0  0  0  0  0  0  0  0
    6.2073   -1.9299   21.9966 C   0  0  0  0  0  0  0  0  0  0  0  0
    6.9853   -2.5341   23.1278 N   0  0  0  0  0  0  0  0  0  0  0  0
    6.8626   -3.9426   23.6290 C   0  0  0  0  0  0  0  0  0  0  0  0
    7.8241   -4.1149   24.7674 C   0  0  0  0  0  0  0  0  0  0  0  0
    8.5410   -2.8130   24.9697 C   0  0  0  0  0  0  0  0  0  0  0  0
    8.0226   -1.8360   23.9564 C   0  0  0  0  0  0  0  0  0  0  0  0
    8.4641   -0.4111   23.7993 C   0  0  0  0  0  0  0  0  0  0  0  0
    7.5811    0.7045   24.2748 C   0  0  0  0  0  0  0  0  0  0  0  0
    8.0225    2.1293   24.1177 C   0  0  0  0  0  0  0  0  0  0  0  0
    9.3470    2.4388   23.4851 C   0  0  0  0  0  0  0  0  0  0  0  0
   10.2299    1.3234   23.0096 C   0  0  0  0  0  0  0  0  0  0  0  0
   11.5543    1.6328   22.3770 F   0  0  0  0  0  0  0  0  0  0  0  0
    9.7884   -0.1016   23.1667 C   0  0  0  0  0  0  0  0  0  0  0  0
    6.4392   -0.5003   21.6062 C   0  0  0  0  0  0  0  0  0  0  0  0
    5.8849    0.0239   20.3147 C   0  0  0  0  0  0  0  0  0  0  0  0
    6.5757   -0.2884   19.0204 C   0  0  0  0  0  0  0  0  0  0  0  0
    6.0214    0.2358   17.7289 N   0  0  0  0  0  0  0  0  0  0  0  0
    4.7763    1.0722   17.7317 C   0  0  0  0  0  0  0  0  0  0  0  0
    4.0854    1.3845   19.0260 C   0  0  0  0  0  0  0  0  0  0  0  0
    2.8403    2.2209   19.0288 C   0  0  0  0  0  0  0  0  0  0  0  0
    2.1495    2.5331   20.3231 C   0  0  0  0  0  0  0  0  0  0  0  0
    2.7038    2.0090   21.6146 C   0  0  0  0  0  0  0  0  0  0  0  0
    3.9489    1.1726   21.6118 C   0  0  0  0  0  0  0  0  0  0  0  0
    4.6397    0.8603   20.3175 C   0  0  0  0  0  0  0  0  0  0  0  0
  1  2  2  0  0  0
  2 15  1  0  0  0
 15 16  1  0  0  0
 16 17  2  0  0  0
 17 18  1  0  0  0
 18 19  2  0  0  0
 19 20  1  0  0  0
 20 21  2  0  0  0
 21 22  1  0  0  0
 22 23  2  0  0  0
 23 24  1  0  0  0
 24 25  2  0  0  0
  2  3  1  0  0  0
  3  4  1  0  0  0
  4  5  1  0  0  0
  5  6  1  0  0  0
  6  7  1  0  0  0
  7  8  1  0  0  0
  8  9  2  0  0  0
  9 10  1  0  0  0
 10 11  2  0  0  0
 11 12  1  0  0  0
 12 13  1  0  0  0
 12 14  2  0  0  0
 25 16  1  0  0  0
  7  3  1  0  0  0
 14  8  1  0  0  0
 25 20  1  0  0  0
M  END
> <minimizedAffinity>
-7.09078

> <CNNscore>
0.4831955731

> <CNNaffinity>
5.5334000587

> <CNN_VS>
2.6737143993

> <CNNaffinity_variance>
0.0561254323

$$$$



 25 28  0  0  0  0  0  0  0  0999 V2000
    8.6080   -4.8006   24.5766 O   0  0  0  0  0  0  0  0  0  0  0  0
    8.3644   -3.3444   24.3113 C   0  0  0  0  0  0  0  0  0  0  0  0
    7.5374   -2.5361   25.2667 N   0  0  0  0  0  0  0  0  0  0  0  0
    6.8926   -3.0438   26.5222 C   0  0  0  0  0  0  0  0  0  0  0  0
    6.1666   -1.8997   27.1658 C   0  0  0  0  0  0  0  0  0  0  0  0
    6.3629   -0.6850   26.3079 C   0  0  0  0  0  0  0  0  0  0  0  0
    7.2100   -1.0783   25.1343 C   0  0  0  0  0  0  0  0  0  0  0  0
    7.6522   -0.1728   24.0232 C   0  0  0  0  0  0  0  0  0  0  0  0
    8.7475    0.8246   24.2594 C   0  0  0  0  0  0  0  0  0  0  0  0
    9.1897    1.7301   23.1484 C   0  0  0  0  0  0  0  0  0  0  0  0
    8.5366    1.6384   21.8011 C   0  0  0  0  0  0  0  0  0  0  0  0
    7.4414    0.6411   21.5649 C   0  0  0  0  0  0  0  0  0  0  0  0
    6.7884    0.5493   20.2177 F   0  0  0  0  0  0  0  0  0  0  0  0
    6.9992   -0.2645   22.6760 C   0  0  0  0  0  0  0  0  0  0  0  0
    8.9479   -2.6966   23.0907 C   0  0  0  0  0  0  0  0  0  0  0  0
   10.3300   -2.1156   23.1381 C   0  0  0  0  0  0  0  0  0  0  0  0
   10.8191   -1.2511   22.0141 C   0  0  0  0  0  0  0  0  0  0  0  0
   12.2012   -0.6701   22.0614 N   0  0  0  0  0  0  0  0  0  0  0  0
   13.0942   -0.9536   23.2327 C   0  0  0  0  0  0  0  0  0  0  0  0
   12.6052   -1.8181   24.3568 C   0  0  0  0  0  0  0  0  0  0  0  0
   13.4982   -2.1016   25.5281 C   0  0  0  0  0  0  0  0  0  0  0  0
   13.0091   -2.9661   26.6521 C   0  0  0  0  0  0  0  0  0  0  0  0
   11.6270   -3.5471   26.6048 C   0  0  0  0  0  0  0  0  0  0  0  0
   10.7340   -3.2636   25.4335 C   0  0  0  0  0  0  0  0  0  0  0  0
   11.2231   -2.3991   24.3095 C   0  0  0  0  0  0  0  0  0  0  0  0
  1  2  2  0  0  0
  2 15  1  0  0  0
 15 16  1  0  0  0
 16 17  2  0  0  0
 17 18  1  0  0  0
 18 19  2  0  0  0
 19 20  1  0  0  0
 20 21  2  0  0  0
 21 22  1  0  0  0
 22 23  2  0  0  0
 23 24  1  0  0  0
 24 25  2  0  0  0
  2  3  1  0  0  0
  3  4  1  0  0  0
  4  5  1  0  0  0
  5  6  1  0  0  0
  6  7  1  0  0  0
  7  8  1  0  0  0
  8  9  2  0  0  0
  9 10  1  0  0  0
 10 11  2  0  0  0
 11 12  1  0  0  0
 12 13  1  0  0  0
 12 14  2  0  0  0
 25 16  1  0  0  0
  7  3  1  0  0  0
 14  8  1  0  0  0
 25 20  1  0  0  0
M  END
> <minimizedAffinity>
-7.53438

> <CNNscore>
0.4721272886

> <CNNaffinity>
5.7697372437

> <CNN_VS>
2.7240502834

> <CNNaffinity_variance>
0.1945909262

$$$$



 25 28  0  0  0  0  0  0  0  0999 V2000
    5.1792   -2.7708   21.1610 O   0  0  0  0  0  0  0  0  0  0  0  0
    6.2329   -1.9796   21.8779 C   0  0  0  0  0  0  0  0  0  0  0  0
    7.0606   -2.6287   22.9472 N   0  0  0  0  0  0  0  0  0  0  0  0
    6.9494   -4.0526   23.4056 C   0  0  0  0  0  0  0  0  0  0  0  0
    7.9649   -4.2719   24.4877 C   0  0  0  0  0  0  0  0  0  0  0  0
    8.7037   -2.9835   24.6980 C   0  0  0  0  0  0  0  0  0  0  0  0
    8.1448   -1.9680   23.7460 C   0  0  0  0  0  0  0  0  0  0  0  0
    8.5916   -0.5421   23.6156 C   0  0  0  0  0  0  0  0  0  0  0  0
    9.8358   -0.2135   22.8447 C   0  0  0  0  0  0  0  0  0  0  0  0
   10.2827    1.2124   22.7143 C   0  0  0  0  0  0  0  0  0  0  0  0
    9.4855    2.3098   23.3548 C   0  0  0  0  0  0  0  0  0  0  0  0
    8.2414    1.9812   24.1256 C   0  0  0  0  0  0  0  0  0  0  0  0
    7.4441    3.0786   24.7660 F   0  0  0  0  0  0  0  0  0  0  0  0
    7.7945    0.5553   24.2560 C   0  0  0  0  0  0  0  0  0  0  0  0
    6.4588   -0.5392   21.5254 C   0  0  0  0  0  0  0  0  0  0  0  0
    5.8840    0.0220   20.2586 C   0  0  0  0  0  0  0  0  0  0  0  0
    6.5634   -0.2384   18.9469 C   0  0  0  0  0  0  0  0  0  0  0  0
    5.9886    0.3228   17.6802 N   0  0  0  0  0  0  0  0  0  0  0  0
    4.7344    1.1444   17.7251 C   0  0  0  0  0  0  0  0  0  0  0  0
    4.0550    1.4048   19.0369 C   0  0  0  0  0  0  0  0  0  0  0  0
    2.8009    2.2264   19.0819 C   0  0  0  0  0  0  0  0  0  0  0  0
    2.1215    2.4868   20.3936 C   0  0  0  0  0  0  0  0  0  0  0  0
    2.6964    1.9256   21.6603 C   0  0  0  0  0  0  0  0  0  0  0  0
    3.9505    1.1040   21.6154 C   0  0  0  0  0  0  0  0  0  0  0  0
    4.6298    0.8436   20.3036 C   0  0  0  0  0  0  0  0  0  0  0  0
  1  2  2  0  0  0
  2 15  1  0  0  0
 15 16  1  0  0  0
 16 17  2  0  0  0
 17 18  1  0  0  0
 18 19  2  0  0  0
 19 20  1  0  0  0
 20 21  2  0  0  0
 21 22  1  0  0  0
 22 23  2  0  0  0
 23 24  1  0  0  0
 24 25  2  0  0  0
  2  3  1  0  0  0
  3  4  1  0  0  0
  4  5  1  0  0  0
  5  6  1  0  0  0
  6  7  1  0  0  0
  7  8  1  0  0  0
  8  9  2  0  0  0
  9 10  1  0  0  0
 10 11  2  0  0  0
 11 12  1  0  0  0
 12 13  1  0  0  0
 12 14  2  0  0  0
 25 16  1  0  0  0
  7  3  1  0  0  0
 14  8  1  0  0  0
 25 20  1  0  0  0
M  END
> <minimizedAffinity>
-7.10647

> <CNNscore>
0.4466003776

> <CNNaffinity>
5.5108213425

> <CNN_VS>
2.4611349106

> <CNNaffinity_variance>
0.0462189652

$$$$



 25 28  0  0  0  0  0  0  0  0999 V2000
    5.7756   -0.2267   25.5532 O   0  0  0  0  0  0  0  0  0  0  0  0
    6.9557    0.1260   24.6969 C   0  0  0  0  0  0  0  0  0  0  0  0
    6.7530    0.8688   23.4096 N   0  0  0  0  0  0  0  0  0  0  0  0
    5.4369    1.3229   22.8515 C   0  0  0  0  0  0  0  0  0  0  0  0
    5.7013    2.0226   21.5513 C   0  0  0  0  0  0  0  0  0  0  0  0
    7.1809    2.0011   21.3059 C   0  0  0  0  0  0  0  0  0  0  0  0
    7.8309    1.2880   22.4544 C   0  0  0  0  0  0  0  0  0  0  0  0
    9.3008    1.0379   22.6187 C   0  0  0  0  0  0  0  0  0  0  0  0
   10.1840    2.1067   23.1913 C   0  0  0  0  0  0  0  0  0  0  0  0
   11.6537    1.8568   23.3557 C   0  0  0  0  0  0  0  0  0  0  0  0
   12.2405    0.5379   22.9475 C   0  0  0  0  0  0  0  0  0  0  0  0
   11.3574   -0.5308   22.3750 C   0  0  0  0  0  0  0  0  0  0  0  0
   11.9441   -1.8495   21.9668 F   0  0  0  0  0  0  0  0  0  0  0  0
    9.8875   -0.2807   22.2106 C   0  0  0  0  0  0  0  0  0  0  0  0
    8.3384   -0.2640   25.1281 C   0  0  0  0  0  0  0  0  0  0  0  0
    8.7037   -1.7134   25.2546 C   0  0  0  0  0  0  0  0  0  0  0  0
    7.6613   -2.7708   25.0427 C   0  0  0  0  0  0  0  0  0  0  0  0
    8.0266   -4.2202   25.1693 N   0  0  0  0  0  0  0  0  0  0  0  0
    9.4343   -4.6120   25.5078 C   0  0  0  0  0  0  0  0  0  0  0  0
   10.4769   -3.5545   25.7197 C   0  0  0  0  0  0  0  0  0  0  0  0
   11.8846   -3.9464   26.0582 C   0  0  0  0  0  0  0  0  0  0  0  0
   12.9271   -2.8889   26.2702 C   0  0  0  0  0  0  0  0  0  0  0  0
   12.5618   -1.4396   26.1436 C   0  0  0  0  0  0  0  0  0  0  0  0
   11.1540   -1.0477   25.8051 C   0  0  0  0  0  0  0  0  0  0  0  0
   10.1116   -2.1052   25.5932 C   0  0  0  0  0  0  0  0  0  0  0  0
  1  2  2  0  0  0
  2 15  1  0  0  0
 15 16  1  0  0  0
 16 17  2  0  0  0
 17 18  1  0  0  0
 18 19  2  0  0  0
 19 20  1  0  0  0
 20 21  2  0  0  0
 21 22  1  0  0  0
 22 23  2  0  0  0
 23 24  1  0  0  0
 24 25  2  0  0  0
  2  3  1  0  0  0
  3  4  1  0  0  0
  4  5  1  0  0  0
  5  6  1  0  0  0
  6  7  1  0  0  0
  7  8  1  0  0  0
  8  9  2  0  0  0
  9 10  1  0  0  0
 10 11  2  0  0  0
 11 12  1  0  0  0
 12 13  1  0  0  0
 12 14  2  0  0  0
 25 16  1  0  0  0
  7  3  1  0  0  0
 14  8  1  0  0  0
 25 20  1  0  0  0
M  END
> <minimizedAffinity>
-7.06777

> <CNNscore>
0.4439013302

> <CNNaffinity>
5.6428709030

> <CNN_VS>
2.5048778057

> <CNNaffinity_variance>
0.2528809905

$$$$



 25 28  0  0  0  0  0  0  0  0999 V2000
    7.0971   -2.4327   25.3843 O   0  0  0  0  0  0  0  0  0  0  0  0
    8.5045   -2.0689   25.0139 C   0  0  0  0  0  0  0  0  0  0  0  0
    9.6577   -2.7353   25.7037 N   0  0  0  0  0  0  0  0  0  0  0  0
    9.5596   -3.7782   26.7775 C   0  0  0  0  0  0  0  0  0  0  0  0
   10.9528   -4.1633   27.1783 C   0  0  0  0  0  0  0  0  0  0  0  0
   11.9120   -3.3585   26.3523 C   0  0  0  0  0  0  0  0  0  0  0  0
   11.1115   -2.4760   25.4410 C   0  0  0  0  0  0  0  0  0  0  0  0
   11.6674   -1.5047   24.4423 C   0  0  0  0  0  0  0  0  0  0  0  0
   12.4712   -2.0035   23.2780 C   0  0  0  0  0  0  0  0  0  0  0  0
   13.0270   -1.0322   22.2793 C   0  0  0  0  0  0  0  0  0  0  0  0
   12.7793    0.4380   22.4447 C   0  0  0  0  0  0  0  0  0  0  0  0
   11.9756    0.9367   23.6089 C   0  0  0  0  0  0  0  0  0  0  0  0
   11.7279    2.4068   23.7743 F   0  0  0  0  0  0  0  0  0  0  0  0
   11.4197   -0.0346   24.6076 C   0  0  0  0  0  0  0  0  0  0  0  0
    8.7585   -1.0387   23.9537 C   0  0  0  0  0  0  0  0  0  0  0  0
    7.6690   -0.6683   22.9914 C   0  0  0  0  0  0  0  0  0  0  0  0
    6.8962   -1.7418   22.2841 C   0  0  0  0  0  0  0  0  0  0  0  0
    5.8067   -1.3714   21.3219 N   0  0  0  0  0  0  0  0  0  0  0  0
    5.4901    0.0724   21.0669 C   0  0  0  0  0  0  0  0  0  0  0  0
    6.2630    1.1460   21.7742 C   0  0  0  0  0  0  0  0  0  0  0  0
    5.9464    2.5898   21.5193 C   0  0  0  0  0  0  0  0  0  0  0  0
    6.7192    3.6633   22.2266 C   0  0  0  0  0  0  0  0  0  0  0  0
    7.8087    3.2929   23.1888 C   0  0  0  0  0  0  0  0  0  0  0  0
    8.1253    1.8491   23.4438 C   0  0  0  0  0  0  0  0  0  0  0  0
    7.3525    0.7756   22.7365 C   0  0  0  0  0  0  0  0  0  0  0  0
  1  2  2  0  0  0
  2 15  1  0  0  0
 15 16  1  0  0  0
 16 17  2  0  0  0
 17 18  1  0  0  0
 18 19  2  0  0  0
 19 20  1  0  0  0
 20 21  2  0  0  0
 21 22  1  0  0  0
 22 23  2  0  0  0
 23 24  1  0  0  0
 24 25  2  0  0  0
  2  3  1  0  0  0
  3  4  1  0  0  0
  4  5  1  0  0  0
  5  6  1  0  0  0
  6  7  1  0  0  0
  7  8  1  0  0  0
  8  9  2  0  0  0
  9 10  1  0  0  0
 10 11  2  0  0  0
 11 12  1  0  0  0
 12 13  1  0  0  0
 12 14  2  0  0  0
 25 16  1  0  0  0
  7  3  1  0  0  0
 14  8  1  0  0  0
 25 20  1  0  0  0
M  END
> <minimizedAffinity>
-6.96446

> <CNNscore>
0.4381801188

> <CNNaffinity>
5.8447756767

> <CNN_VS>
2.5610644817

> <CNNaffinity_variance>
0.3650195301

$$$$



 25 28  0  0  0  0  0  0  0  0999 V2000
    7.7005    2.1343   21.6298 O   0  0  0  0  0  0  0  0  0  0  0  0
    9.0000    1.5904   22.1453 C   0  0  0  0  0  0  0  0  0  0  0  0
   10.1009    2.5286   22.5424 N   0  0  0  0  0  0  0  0  0  0  0  0
   10.0484    4.0263   22.4799 C   0  0  0  0  0  0  0  0  0  0  0  0
   11.3626    4.5572   22.9707 C   0  0  0  0  0  0  0  0  0  0  0  0
   12.2275    3.3875   23.3366 C   0  0  0  0  0  0  0  0  0  0  0  0
   11.4477    2.1338   23.0719 C   0  0  0  0  0  0  0  0  0  0  0  0
   11.9300    0.7314   23.2972 C   0  0  0  0  0  0  0  0  0  0  0  0
   12.6550    0.0030   22.2044 C   0  0  0  0  0  0  0  0  0  0  0  0
   13.1373   -1.3993   22.4297 C   0  0  0  0  0  0  0  0  0  0  0  0
   12.8947   -2.0734   23.7476 C   0  0  0  0  0  0  0  0  0  0  0  0
   12.1697   -1.3450   24.8402 C   0  0  0  0  0  0  0  0  0  0  0  0
   11.9271   -2.0190   26.1581 F   0  0  0  0  0  0  0  0  0  0  0  0
   11.6874    0.0574   24.6150 C   0  0  0  0  0  0  0  0  0  0  0  0
    9.1985    0.1083   22.2635 C   0  0  0  0  0  0  0  0  0  0  0  0
    8.0277   -0.8188   22.1225 C   0  0  0  0  0  0  0  0  0  0  0  0
    6.9243   -0.4926   21.1603 C   0  0  0  0  0  0  0  0  0  0  0  0
    5.7536   -1.4197   21.0193 N   0  0  0  0  0  0  0  0  0  0  0  0
    5.6863   -2.6730   21.8405 C   0  0  0  0  0  0  0  0  0  0  0  0
    6.7898   -2.9994   22.8028 C   0  0  0  0  0  0  0  0  0  0  0  0
    6.7225   -4.2527   23.6241 C   0  0  0  0  0  0  0  0  0  0  0  0
    7.8259   -4.5790   24.5863 C   0  0  0  0  0  0  0  0  0  0  0  0
    8.9966   -3.6519   24.7273 C   0  0  0  0  0  0  0  0  0  0  0  0
    9.0639   -2.3985   23.9061 C   0  0  0  0  0  0  0  0  0  0  0  0
    7.9605   -2.0722   22.9438 C   0  0  0  0  0  0  0  0  0  0  0  0
  1  2  2  0  0  0
  2 15  1  0  0  0
 15 16  1  0  0  0
 16 17  2  0  0  0
 17 18  1  0  0  0
 18 19  2  0  0  0
 19 20  1  0  0  0
 20 21  2  0  0  0
 21 22  1  0  0  0
 22 23  2  0  0  0
 23 24  1  0  0  0
 24 25  2  0  0  0
  2  3  1  0  0  0
  3  4  1  0  0  0
  4  5  1  0  0  0
  5  6  1  0  0  0
  6  7  1  0  0  0
  7  8  1  0  0  0
  8  9  2  0  0  0
  9 10  1  0  0  0
 10 11  2  0  0  0
 11 12  1  0  0  0
 12 13  1  0  0  0
 12 14  2  0  0  0
 25 16  1  0  0  0
  7  3  1  0  0  0
 14  8  1  0  0  0
 25 20  1  0  0  0
M  END
> <minimizedAffinity>
-6.68405

> <CNNscore>
0.4130724967

> <CNNaffinity>
5.8170027733

> <CNN_VS>
2.4028439522

> <CNNaffinity_variance>
0.0741299838

$$$$



 25 28  0  0  0  0  0  0  0  0999 V2000
   13.0317   -0.5643   22.2857 O   0  0  0  0  0  0  0  0  0  0  0  0
   11.5664   -0.2519   22.3611 C   0  0  0  0  0  0  0  0  0  0  0  0
   11.1116    1.1556   22.6099 N   0  0  0  0  0  0  0  0  0  0  0  0
   12.0004    2.3485   22.8019 C   0  0  0  0  0  0  0  0  0  0  0  0
   11.1262    3.5476   23.0210 C   0  0  0  0  0  0  0  0  0  0  0  0
    9.6970    3.0957   22.9644 C   0  0  0  0  0  0  0  0  0  0  0  0
    9.6880    1.6174   22.7103 C   0  0  0  0  0  0  0  0  0  0  0  0
    8.4693    0.7527   22.5797 C   0  0  0  0  0  0  0  0  0  0  0  0
    8.0502    0.2460   21.2314 C   0  0  0  0  0  0  0  0  0  0  0  0
    6.8316   -0.6186   21.1006 C   0  0  0  0  0  0  0  0  0  0  0  0
    6.0318   -0.9767   22.3182 C   0  0  0  0  0  0  0  0  0  0  0  0
    6.4509   -0.4700   23.6664 C   0  0  0  0  0  0  0  0  0  0  0  0
    5.6512   -0.8280   24.8839 F   0  0  0  0  0  0  0  0  0  0  0  0
    7.6696    0.3947   23.7971 C   0  0  0  0  0  0  0  0  0  0  0  0
   10.5562   -1.3470   22.1877 C   0  0  0  0  0  0  0  0  0  0  0  0
   10.2289   -2.2543   23.3365 C   0  0  0  0  0  0  0  0  0  0  0  0
    8.9006   -2.9492   23.3886 C   0  0  0  0  0  0  0  0  0  0  0  0
    8.5732   -3.8564   24.5374 N   0  0  0  0  0  0  0  0  0  0  0  0
    9.5742   -4.0687   25.6342 C   0  0  0  0  0  0  0  0  0  0  0  0
   10.9025   -3.3738   25.5822 C   0  0  0  0  0  0  0  0  0  0  0  0
   11.9035   -3.5861   26.6790 C   0  0  0  0  0  0  0  0  0  0  0  0
   13.2318   -2.8912   26.6269 C   0  0  0  0  0  0  0  0  0  0  0  0
   13.5591   -1.9840   25.4781 C   0  0  0  0  0  0  0  0  0  0  0  0
   12.5582   -1.7717   24.3813 C   0  0  0  0  0  0  0  0  0  0  0  0
   11.2299   -2.4666   24.4334 C   0  0  0  0  0  0  0  0  0  0  0  0
  1  2  2  0  0  0
  2 15  1  0  0  0
 15 16  1  0  0  0
 16 17  2  0  0  0
 17 18  1  0  0  0
 18 19  2  0  0  0
 19 20  1  0  0  0
 20 21  2  0  0  0
 21 22  1  0  0  0
 22 23  2  0  0  0
 23 24  1  0  0  0
 24 25  2  0  0  0
  2  3  1  0  0  0
  3  4  1  0  0  0
  4  5  1  0  0  0
  5  6  1  0  0  0
  6  7  1  0  0  0
  7  8  1  0  0  0
  8  9  2  0  0  0
  9 10  1  0  0  0
 10 11  2  0  0  0
 11 12  1  0  0  0
 12 13  1  0  0  0
 12 14  2  0  0  0
 25 16  1  0  0  0
  7  3  1  0  0  0
 14  8  1  0  0  0
 25 20  1  0  0  0
M  END
> <minimizedAffinity>
-7.85970

> <CNNscore>
0.3880135417

> <CNNaffinity>
5.8166284561

> <CNN_VS>
2.2569305897

> <CNNaffinity_variance>
0.1793602556

$$$$



 25 28  0  0  0  0  0  0  0  0999 V2000
    8.6939    2.1977   21.1473 O   0  0  0  0  0  0  0  0  0  0  0  0
    8.5291    0.8558   21.7972 C   0  0  0  0  0  0  0  0  0  0  0  0
    9.5924    0.3321   22.7165 N   0  0  0  0  0  0  0  0  0  0  0  0
   10.8679    1.0331   23.0793 C   0  0  0  0  0  0  0  0  0  0  0  0
   11.6307    0.1497   24.0215 C   0  0  0  0  0  0  0  0  0  0  0  0
   10.8265   -1.0973   24.2411 C   0  0  0  0  0  0  0  0  0  0  0  0
    9.5668   -0.9846   23.4346 C   0  0  0  0  0  0  0  0  0  0  0  0
    8.4734   -2.0088   23.3594 C   0  0  0  0  0  0  0  0  0  0  0  0
    8.5198   -3.2214   24.2412 C   0  0  0  0  0  0  0  0  0  0  0  0
    7.4265   -4.2456   24.1660 C   0  0  0  0  0  0  0  0  0  0  0  0
    6.2868   -4.0572   23.2091 C   0  0  0  0  0  0  0  0  0  0  0  0
    6.2405   -2.8446   22.3274 C   0  0  0  0  0  0  0  0  0  0  0  0
    5.1008   -2.6562   21.3705 F   0  0  0  0  0  0  0  0  0  0  0  0
    7.3338   -1.8204   22.4026 C   0  0  0  0  0  0  0  0  0  0  0  0
    7.3011    0.0378   21.5277 C   0  0  0  0  0  0  0  0  0  0  0  0
    6.4609    0.3222   20.3181 C   0  0  0  0  0  0  0  0  0  0  0  0
    6.7893   -0.3283   19.0070 C   0  0  0  0  0  0  0  0  0  0  0  0
    5.9492   -0.0438   17.7974 N   0  0  0  0  0  0  0  0  0  0  0  0
    4.7806    0.8911   17.8988 C   0  0  0  0  0  0  0  0  0  0  0  0
    4.4521    1.5416   19.2100 C   0  0  0  0  0  0  0  0  0  0  0  0
    3.2836    2.4766   19.3114 C   0  0  0  0  0  0  0  0  0  0  0  0
    2.9552    3.1270   20.6225 C   0  0  0  0  0  0  0  0  0  0  0  0
    3.7953    2.8426   21.8321 C   0  0  0  0  0  0  0  0  0  0  0  0
    4.9639    1.9077   21.7307 C   0  0  0  0  0  0  0  0  0  0  0  0
    5.2923    1.2572   20.4196 C   0  0  0  0  0  0  0  0  0  0  0  0
  1  2  2  0  0  0
  2 15  1  0  0  0
 15 16  1  0  0  0
 16 17  2  0  0  0
 17 18  1  0  0  0
 18 19  2  0  0  0
 19 20  1  0  0  0
 20 21  2  0  0  0
 21 22  1  0  0  0
 22 23  2  0  0  0
 23 24  1  0  0  0
 24 25  2  0  0  0
  2  3  1  0  0  0
  3  4  1  0  0  0
  4  5  1  0  0  0
  5  6  1  0  0  0
  6  7  1  0  0  0
  7  8  1  0  0  0
  8  9  2  0  0  0
  9 10  1  0  0  0
 10 11  2  0  0  0
 11 12  1  0  0  0
 12 13  1  0  0  0
 12 14  2  0  0  0
 25 16  1  0  0  0
  7  3  1  0  0  0
 14  8  1  0  0  0
 25 20  1  0  0  0
M  END
> <minimizedAffinity>
-7.26740

> <CNNscore>
0.3865934610

> <CNNaffinity>
5.6018047333

> <CNN_VS>
2.1656210423

> <CNNaffinity_variance>
0.1440765411

$$$$
