


 25 28  0  0  0  0  0  0  0  0999 V2000
   -8.0915    0.7471  -21.3707 O   0  0  0  0  0  0  0  0  0  0  0  0
   -8.0192   -0.4193  -22.3111 C   0  0  0  0  0  0  0  0  0  0  0  0
   -7.1545   -1.5988  -21.9780 N   0  0  0  0  0  0  0  0  0  0  0  0
   -6.3098   -1.7535  -20.7481 C   0  0  0  0  0  0  0  0  0  0  0  0
   -5.6159   -3.0810  -20.8262 C   0  0  0  0  0  0  0  0  0  0  0  0
   -6.0316   -3.7468  -22.1044 C   0  0  0  0  0  0  0  0  0  0  0  0
   -6.9825   -2.8308  -22.8162 C   0  0  0  0  0  0  0  0  0  0  0  0
   -7.6451   -3.0996  -24.1348 C   0  0  0  0  0  0  0  0  0  0  0  0
   -7.0534   -2.5476  -25.3979 C   0  0  0  0  0  0  0  0  0  0  0  0
   -7.7159   -2.8163  -26.7164 C   0  0  0  0  0  0  0  0  0  0  0  0
   -8.9703   -3.6371  -26.7721 C   0  0  0  0  0  0  0  0  0  0  0  0
   -9.5619   -4.1891  -25.5091 C   0  0  0  0  0  0  0  0  0  0  0  0
  -10.8162   -5.0099  -25.5647 F   0  0  0  0  0  0  0  0  0  0  0  0
   -8.8993   -3.9203  -24.1905 C   0  0  0  0  0  0  0  0  0  0  0  0
   -8.8116   -0.4062  -23.5846 C   0  0  0  0  0  0  0  0  0  0  0  0
  -10.1543    0.2614  -23.6257 C   0  0  0  0  0  0  0  0  0  0  0  0
  -10.2623    1.7052  -24.0174 C   0  0  0  0  0  0  0  0  0  0  0  0
  -11.6049    2.3728  -24.0585 N   0  0  0  0  0  0  0  0  0  0  0  0
  -12.8395    1.5965  -23.7079 C   0  0  0  0  0  0  0  0  0  0  0  0
  -12.7316    0.1525  -23.3161 C   0  0  0  0  0  0  0  0  0  0  0  0
  -13.9662   -0.6238  -22.9655 C   0  0  0  0  0  0  0  0  0  0  0  0
  -13.8581   -2.0677  -22.5738 C   0  0  0  0  0  0  0  0  0  0  0  0
  -12.5155   -2.7352  -22.5327 C   0  0  0  0  0  0  0  0  0  0  0  0
  -11.2809   -1.9589  -22.8833 C   0  0  0  0  0  0  0  0  0  0  0  0
  -11.3889   -0.5150  -23.2750 C   0  0  0  0  0  0  0  0  0  0  0  0
  1  2  2  0  0  0
  2 15  1  0  0  0
 15 16  1  0  0  0
 16 17  2  0  0  0
 17 18  1  0  0  0
 18 19  2  0  0  0
 19 20  1  0  0  0
 20 21  2  0  0  0
 21 22  1  0  0  0
 22 23  2  0  0  0
 23 24  1  0  0  0
 24 25  2  0  0  0
  2  3  1  0  0  0
  3  4  1  0  0  0
  4  5  1  0  0  0
  5  6  1  0  0  0
  6  7  1  0  0  0
  7  8  1  0  0  0
  8  9  2  0  0  0
  9 10  1  0  0  0
 10 11  2  0  0  0
 11 12  1  0  0  0
 12 13  1  0  0  0
 12 14  2  0  0  0
 25 16  1  0  0  0
  7  3  1  0  0  0
 14  8  1  0  0  0
 25 20  1  0  0  0
M  END
> <minimizedAffinity>
-6.40806

> <CNNscore>
0.5069354177

> <CNNaffinity>
5.5586462021

> <CNN_VS>
2.8178746700

> <CNNaffinity_variance>
0.0759264231

$$$$



 25 28  0  0  0  0  0  0  0  0999 V2000
   -5.3228   -3.9579  -21.0227 O   0  0  0  0  0  0  0  0  0  0  0  0
   -6.3864   -3.3226  -21.8685 C   0  0  0  0  0  0  0  0  0  0  0  0
   -7.1504   -4.1501  -22.8592 N   0  0  0  0  0  0  0  0  0  0  0  0
   -6.9629   -5.6163  -23.1142 C   0  0  0  0  0  0  0  0  0  0  0  0
   -7.9327   -6.0290  -24.1814 C   0  0  0  0  0  0  0  0  0  0  0  0
   -8.7197   -4.8179  -24.5861 C   0  0  0  0  0  0  0  0  0  0  0  0
   -8.2362   -3.6566  -23.7689 C   0  0  0  0  0  0  0  0  0  0  0  0
   -8.7485   -2.2490  -23.8477 C   0  0  0  0  0  0  0  0  0  0  0  0
   -9.9227   -1.8305  -23.0131 C   0  0  0  0  0  0  0  0  0  0  0  0
  -10.4350   -0.4230  -23.0918 C   0  0  0  0  0  0  0  0  0  0  0  0
   -9.7733    0.5661  -24.0051 C   0  0  0  0  0  0  0  0  0  0  0  0
   -8.5993    0.1476  -24.8395 C   0  0  0  0  0  0  0  0  0  0  0  0
   -7.9376    1.1366  -25.7527 F   0  0  0  0  0  0  0  0  0  0  0  0
   -8.0869   -1.2600  -24.7608 C   0  0  0  0  0  0  0  0  0  0  0  0
   -6.6858   -1.8600  -21.7236 C   0  0  0  0  0  0  0  0  0  0  0  0
   -6.1522   -1.0982  -20.5468 C   0  0  0  0  0  0  0  0  0  0  0  0
   -6.8221   -1.2172  -19.2100 C   0  0  0  0  0  0  0  0  0  0  0  0
   -6.2885   -0.4554  -18.0332 N   0  0  0  0  0  0  0  0  0  0  0  0
   -5.0850    0.4255  -18.1932 C   0  0  0  0  0  0  0  0  0  0  0  0
   -4.4150    0.5445  -19.5300 C   0  0  0  0  0  0  0  0  0  0  0  0
   -3.2115    1.4253  -19.6900 C   0  0  0  0  0  0  0  0  0  0  0  0
   -2.5416    1.5443  -21.0267 C   0  0  0  0  0  0  0  0  0  0  0  0
   -3.0752    0.7825  -22.2035 C   0  0  0  0  0  0  0  0  0  0  0  0
   -4.2787   -0.0983  -22.0436 C   0  0  0  0  0  0  0  0  0  0  0  0
   -4.9486   -0.2173  -20.7068 C   0  0  0  0  0  0  0  0  0  0  0  0
  1  2  2  0  0  0
  2 15  1  0  0  0
 15 16  1  0  0  0
 16 17  2  0  0  0
 17 18  1  0  0  0
 18 19  2  0  0  0
 19 20  1  0  0  0
 20 21  2  0  0  0
 21 22  1  0  0  0
 22 23  2  0  0  0
 23 24  1  0  0  0
 24 25  2  0  0  0
  2  3  1  0  0  0
  3  4  1  0  0  0
  4  5  1  0  0  0
  5  6  1  0  0  0
  6  7  1  0  0  0
  7  8  1  0  0  0
  8  9  2  0  0  0
  9 10  1  0  0  0
 10 11  2  0  0  0
 11 12  1  0  0  0
 12 13  1  0  0  0
 12 14  2  0  0  0
 25 16  1  0  0  0
  7  3  1  0  0  0
 14  8  1  0  0  0
 25 20  1  0  0  0
M  END
> <minimizedAffinity>
-7.35119

> <CNNscore>
0.4225335121

> <CNNaffinity>
5.2709112167

> <CNN_VS>
2.2271366119

> <CNNaffinity_variance>
0.2719960809

$$$$



 25 28  0  0  0  0  0  0  0  0999 V2000
   -9.5017   -2.2501  -24.9652 O   0  0  0  0  0  0  0  0  0  0  0  0
   -8.6795   -3.4772  -24.7037 C   0  0  0  0  0  0  0  0  0  0  0  0
   -9.0957   -4.7964  -25.2836 N   0  0  0  0  0  0  0  0  0  0  0  0
  -10.3027   -5.0419  -26.1396 C   0  0  0  0  0  0  0  0  0  0  0  0
  -10.3309   -6.4990  -26.4944 C   0  0  0  0  0  0  0  0  0  0  0  0
   -9.1413   -7.1542  -25.8576 C   0  0  0  0  0  0  0  0  0  0  0  0
   -8.3779   -6.1020  -25.1093 C   0  0  0  0  0  0  0  0  0  0  0  0
   -7.1179   -6.3174  -24.3245 C   0  0  0  0  0  0  0  0  0  0  0  0
   -5.7870   -6.2719  -25.0152 C   0  0  0  0  0  0  0  0  0  0  0  0
   -4.5270   -6.4873  -24.2305 C   0  0  0  0  0  0  0  0  0  0  0  0
   -4.5977   -6.7484  -22.7550 C   0  0  0  0  0  0  0  0  0  0  0  0
   -5.9285   -6.7939  -22.0644 C   0  0  0  0  0  0  0  0  0  0  0  0
   -5.9992   -7.0550  -20.5890 F   0  0  0  0  0  0  0  0  0  0  0  0
   -7.1885   -6.5785  -22.8492 C   0  0  0  0  0  0  0  0  0  0  0  0
   -7.4412   -3.3849  -23.8623 C   0  0  0  0  0  0  0  0  0  0  0  0
   -7.2519   -2.2244  -22.9310 C   0  0  0  0  0  0  0  0  0  0  0  0
   -8.1696   -2.0468  -21.7579 C   0  0  0  0  0  0  0  0  0  0  0  0
   -7.9803   -0.8862  -20.8265 N   0  0  0  0  0  0  0  0  0  0  0  0
   -6.8734    0.0967  -21.0684 C   0  0  0  0  0  0  0  0  0  0  0  0
   -5.9557   -0.0809  -22.2416 C   0  0  0  0  0  0  0  0  0  0  0  0
   -4.8487    0.9020  -22.4834 C   0  0  0  0  0  0  0  0  0  0  0  0
   -3.9311    0.7244  -23.6565 C   0  0  0  0  0  0  0  0  0  0  0  0
   -4.1203   -0.4361  -24.5878 C   0  0  0  0  0  0  0  0  0  0  0  0
   -5.2272   -1.4190  -24.3460 C   0  0  0  0  0  0  0  0  0  0  0  0
   -6.1449   -1.2414  -23.1729 C   0  0  0  0  0  0  0  0  0  0  0  0
  1  2  2  0  0  0
  2 15  1  0  0  0
 15 16  1  0  0  0
 16 17  2  0  0  0
 17 18  1  0  0  0
 18 19  2  0  0  0
 19 20  1  0  0  0
 20 21  2  0  0  0
 21 22  1  0  0  0
 22 23  2  0  0  0
 23 24  1  0  0  0
 24 25  2  0  0  0
  2  3  1  0  0  0
  3  4  1  0  0  0
  4  5  1  0  0  0
  5  6  1  0  0  0
  6  7  1  0  0  0
  7  8  1  0  0  0
  8  9  2  0  0  0
  9 10  1  0  0  0
 10 11  2  0  0  0
 11 12  1  0  0  0
 12 13  1  0  0  0
 12 14  2  0  0  0
 25 16  1  0  0  0
  7  3  1  0  0  0
 14  8  1  0  0  0
 25 20  1  0  0  0
M  END
> <minimizedAffinity>
-6.42588

> <CNNscore>
0.4159654975

> <CNNaffinity>
5.4514226913

> <CNN_VS>
2.2676036358

> <CNNaffinity_variance>
0.0797603726

$$$$



 25 28  0  0  0  0  0  0  0  0999 V2000
   -5.3541   -3.9482  -21.0178 O   0  0  0  0  0  0  0  0  0  0  0  0
   -6.3600   -3.3032  -21.9246 C   0  0  0  0  0  0  0  0  0  0  0  0
   -7.0225   -4.1082  -23.0030 N   0  0  0  0  0  0  0  0  0  0  0  0
   -6.7817   -5.5599  -23.2936 C   0  0  0  0  0  0  0  0  0  0  0  0
   -7.6525   -5.9518  -24.4504 C   0  0  0  0  0  0  0  0  0  0  0  0
   -8.4315   -4.7422  -24.8748 C   0  0  0  0  0  0  0  0  0  0  0  0
   -8.0421   -3.6028  -23.9802 C   0  0  0  0  0  0  0  0  0  0  0  0
   -8.5783   -2.2037  -24.0506 C   0  0  0  0  0  0  0  0  0  0  0  0
   -7.7994   -1.1369  -24.7616 C   0  0  0  0  0  0  0  0  0  0  0  0
   -8.3355    0.2622  -24.8320 C   0  0  0  0  0  0  0  0  0  0  0  0
   -9.6506    0.5947  -24.1914 C   0  0  0  0  0  0  0  0  0  0  0  0
  -10.4294   -0.4721  -23.4804 C   0  0  0  0  0  0  0  0  0  0  0  0
  -11.7443   -0.1397  -22.8398 F   0  0  0  0  0  0  0  0  0  0  0  0
   -9.8932   -1.8712  -23.4101 C   0  0  0  0  0  0  0  0  0  0  0  0
   -6.7034   -1.8532  -21.7528 C   0  0  0  0  0  0  0  0  0  0  0  0
   -6.1788   -1.0930  -20.5709 C   0  0  0  0  0  0  0  0  0  0  0  0
   -6.8630   -1.2087  -19.2410 C   0  0  0  0  0  0  0  0  0  0  0  0
   -6.3384   -0.4486  -18.0591 N   0  0  0  0  0  0  0  0  0  0  0  0
   -5.1297    0.4272  -18.2069 C   0  0  0  0  0  0  0  0  0  0  0  0
   -4.4455    0.5429  -19.5368 C   0  0  0  0  0  0  0  0  0  0  0  0
   -3.2367    1.4187  -19.6847 C   0  0  0  0  0  0  0  0  0  0  0  0
   -2.5526    1.5344  -21.0145 C   0  0  0  0  0  0  0  0  0  0  0  0
   -3.0772    0.7743  -22.1965 C   0  0  0  0  0  0  0  0  0  0  0  0
   -4.2859   -0.1015  -22.0486 C   0  0  0  0  0  0  0  0  0  0  0  0
   -4.9700   -0.2172  -20.7188 C   0  0  0  0  0  0  0  0  0  0  0  0
  1  2  2  0  0  0
  2 15  1  0  0  0
 15 16  1  0  0  0
 16 17  2  0  0  0
 17 18  1  0  0  0
 18 19  2  0  0  0
 19 20  1  0  0  0
 20 21  2  0  0  0
 21 22  1  0  0  0
 22 23  2  0  0  0
 23 24  1  0  0  0
 24 25  2  0  0  0
  2  3  1  0  0  0
  3  4  1  0  0  0
  4  5  1  0  0  0
  5  6  1  0  0  0
  6  7  1  0  0  0
  7  8  1  0  0  0
  8  9  2  0  0  0
  9 10  1  0  0  0
 10 11  2  0  0  0
 11 12  1  0  0  0
 12 13  1  0  0  0
 12 14  2  0  0  0
 25 16  1  0  0  0
  7  3  1  0  0  0
 14  8  1  0  0  0
 25 20  1  0  0  0
M  END
> <minimizedAffinity>
-7.38175

> <CNNscore>
0.4131829143

> <CNNaffinity>
5.3427915573

> <CNN_VS>
2.2075502872

> <CNNaffinity_variance>
0.2244870961

$$$$



 25 28  0  0  0  0  0  0  0  0999 V2000
   -8.5667   -0.9971  -22.5221 O   0  0  0  0  0  0  0  0  0  0  0  0
   -7.9930   -2.3491  -22.8272 C   0  0  0  0  0  0  0  0  0  0  0  0
   -8.7089   -3.2728  -23.7674 N   0  0  0  0  0  0  0  0  0  0  0  0
  -10.0001   -2.9844  -24.4743 C   0  0  0  0  0  0  0  0  0  0  0  0
  -10.3486   -4.1805  -25.3096 C   0  0  0  0  0  0  0  0  0  0  0  0
   -9.2728   -5.2083  -25.1191 C   0  0  0  0  0  0  0  0  0  0  0  0
   -8.2595   -4.6473  -24.1659 C   0  0  0  0  0  0  0  0  0  0  0  0
   -7.0151   -5.3394  -23.6941 C   0  0  0  0  0  0  0  0  0  0  0  0
   -5.8273   -5.4493  -24.6037 C   0  0  0  0  0  0  0  0  0  0  0  0
   -4.5830   -6.1413  -24.1320 C   0  0  0  0  0  0  0  0  0  0  0  0
   -4.5262   -6.7234  -22.7506 C   0  0  0  0  0  0  0  0  0  0  0  0
   -5.7139   -6.6134  -21.8411 C   0  0  0  0  0  0  0  0  0  0  0  0
   -5.6572   -7.1955  -20.4598 F   0  0  0  0  0  0  0  0  0  0  0  0
   -6.9583   -5.9214  -22.3129 C   0  0  0  0  0  0  0  0  0  0  0  0
   -6.7034   -2.7773  -22.1920 C   0  0  0  0  0  0  0  0  0  0  0  0
   -6.1099   -1.9659  -21.0787 C   0  0  0  0  0  0  0  0  0  0  0  0
   -6.5088   -2.2365  -19.6583 C   0  0  0  0  0  0  0  0  0  0  0  0
   -5.9154   -1.4251  -18.5450 N   0  0  0  0  0  0  0  0  0  0  0  0
   -4.9231   -0.3430  -18.8521 C   0  0  0  0  0  0  0  0  0  0  0  0
   -4.5241   -0.0723  -20.2725 C   0  0  0  0  0  0  0  0  0  0  0  0
   -3.5318    1.0098  -20.5796 C   0  0  0  0  0  0  0  0  0  0  0  0
   -3.1330    1.2805  -22.0000 C   0  0  0  0  0  0  0  0  0  0  0  0
   -3.7264    0.4691  -23.1133 C   0  0  0  0  0  0  0  0  0  0  0  0
   -4.7187   -0.6130  -22.8062 C   0  0  0  0  0  0  0  0  0  0  0  0
   -5.1176   -0.8837  -21.3858 C   0  0  0  0  0  0  0  0  0  0  0  0
  1  2  2  0  0  0
  2 15  1  0  0  0
 15 16  1  0  0  0
 16 17  2  0  0  0
 17 18  1  0  0  0
 18 19  2  0  0  0
 19 20  1  0  0  0
 20 21  2  0  0  0
 21 22  1  0  0  0
 22 23  2  0  0  0
 23 24  1  0  0  0
 24 25  2  0  0  0
  2  3  1  0  0  0
  3  4  1  0  0  0
  4  5  1  0  0  0
  5  6  1  0  0  0
  6  7  1  0  0  0
  7  8  1  0  0  0
  8  9  2  0  0  0
  9 10  1  0  0  0
 10 11  2  0  0  0
 11 12  1  0  0  0
 12 13  1  0  0  0
 12 14  2  0  0  0
 25 16  1  0  0  0
  7  3  1  0  0  0
 14  8  1  0  0  0
 25 20  1  0  0  0
M  END
> <minimizedAffinity>
-6.62735

> <CNNscore>
0.4058125913

> <CNNaffinity>
5.4608831406

> <CNN_VS>
2.2160952091

> <CNNaffinity_variance>
0.1499772966

$$$$



 25 28  0  0  0  0  0  0  0  0999 V2000
   -6.5961   -1.7912  -18.3840 O   0  0  0  0  0  0  0  0  0  0  0  0
   -6.6919   -1.0246  -19.6698 C   0  0  0  0  0  0  0  0  0  0  0  0
   -5.6714    0.0257  -19.9945 N   0  0  0  0  0  0  0  0  0  0  0  0
   -4.5055    0.4176  -19.1359 C   0  0  0  0  0  0  0  0  0  0  0  0
   -3.7512    1.5027  -19.8456 C   0  0  0  0  0  0  0  0  0  0  0  0
   -4.4509    1.7815  -21.1428 C   0  0  0  0  0  0  0  0  0  0  0  0
   -5.6377    0.8687  -21.2348 C   0  0  0  0  0  0  0  0  0  0  0  0
   -6.6184    0.8092  -22.3682 C   0  0  0  0  0  0  0  0  0  0  0  0
   -6.2537    0.1011  -23.6393 C   0  0  0  0  0  0  0  0  0  0  0  0
   -7.2344    0.0417  -24.7726 C   0  0  0  0  0  0  0  0  0  0  0  0
   -8.5800    0.6903  -24.6350 C   0  0  0  0  0  0  0  0  0  0  0  0
   -8.9447    1.3984  -23.3639 C   0  0  0  0  0  0  0  0  0  0  0  0
  -10.2901    2.0470  -23.2263 F   0  0  0  0  0  0  0  0  0  0  0  0
   -7.9639    1.4578  -22.2306 C   0  0  0  0  0  0  0  0  0  0  0  0
   -7.8080   -1.3084  -20.6308 C   0  0  0  0  0  0  0  0  0  0  0  0
   -7.6444   -2.3697  -21.6781 C   0  0  0  0  0  0  0  0  0  0  0  0
   -6.3470   -3.1132  -21.7961 C   0  0  0  0  0  0  0  0  0  0  0  0
   -6.1834   -4.1745  -22.8435 N   0  0  0  0  0  0  0  0  0  0  0  0
   -7.3171   -4.4922  -23.7728 C   0  0  0  0  0  0  0  0  0  0  0  0
   -8.6145   -3.7487  -23.6548 C   0  0  0  0  0  0  0  0  0  0  0  0
   -9.7482   -4.0664  -24.5842 C   0  0  0  0  0  0  0  0  0  0  0  0
  -11.0456   -3.3229  -24.4662 C   0  0  0  0  0  0  0  0  0  0  0  0
  -11.2092   -2.2616  -23.4188 C   0  0  0  0  0  0  0  0  0  0  0  0
  -10.0755   -1.9438  -22.4895 C   0  0  0  0  0  0  0  0  0  0  0  0
   -8.7782   -2.6874  -22.6075 C   0  0  0  0  0  0  0  0  0  0  0  0
  1  2  2  0  0  0
  2 15  1  0  0  0
 15 16  1  0  0  0
 16 17  2  0  0  0
 17 18  1  0  0  0
 18 19  2  0  0  0
 19 20  1  0  0  0
 20 21  2  0  0  0
 21 22  1  0  0  0
 22 23  2  0  0  0
 23 24  1  0  0  0
 24 25  2  0  0  0
  2  3  1  0  0  0
  3  4  1  0  0  0
  4  5  1  0  0  0
  5  6  1  0  0  0
  6  7  1  0  0  0
  7  8  1  0  0  0
  8  9  2  0  0  0
  9 10  1  0  0  0
 10 11  2  0  0  0
 11 12  1  0  0  0
 12 13  1  0  0  0
 12 14  2  0  0  0
 25 16  1  0  0  0
  7  3  1  0  0  0
 14  8  1  0  0  0
 25 20  1  0  0  0
M  END
> <minimizedAffinity>
-6.77454

> <CNNscore>
0.3655825853

> <CNNaffinity>
5.4001269341

> <CNN_VS>
1.9741923809

> <CNNaffinity_variance>
0.2049324512

$$$$



 25 28  0  0  0  0  0  0  0  0999 V2000
   -6.5250   -4.2207  -22.0591 O   0  0  0  0  0  0  0  0  0  0  0  0
   -6.8517   -2.8011  -22.4173 C   0  0  0  0  0  0  0  0  0  0  0  0
   -8.2334   -2.4429  -22.8783 N   0  0  0  0  0  0  0  0  0  0  0  0
   -9.3857   -3.3911  -23.0301 C   0  0  0  0  0  0  0  0  0  0  0  0
  -10.5699   -2.6078  -23.5141 C   0  0  0  0  0  0  0  0  0  0  0  0
  -10.1494   -1.1755  -23.6615 C   0  0  0  0  0  0  0  0  0  0  0  0
   -8.7054   -1.0736  -23.2685 C   0  0  0  0  0  0  0  0  0  0  0  0
   -7.8785    0.1779  -23.2662 C   0  0  0  0  0  0  0  0  0  0  0  0
   -7.9458    1.1191  -22.1001 C   0  0  0  0  0  0  0  0  0  0  0  0
   -7.1190    2.3706  -22.0978 C   0  0  0  0  0  0  0  0  0  0  0  0
   -6.2248    2.6810  -23.2615 C   0  0  0  0  0  0  0  0  0  0  0  0
   -6.1576    1.7398  -24.4276 C   0  0  0  0  0  0  0  0  0  0  0  0
   -5.2635    2.0502  -25.5913 F   0  0  0  0  0  0  0  0  0  0  0  0
   -6.9845    0.4883  -24.4299 C   0  0  0  0  0  0  0  0  0  0  0  0
   -5.7967   -1.7398  -22.3144 C   0  0  0  0  0  0  0  0  0  0  0  0
   -5.5381   -1.0642  -21.0003 C   0  0  0  0  0  0  0  0  0  0  0  0
   -6.3460   -1.4380  -19.7931 C   0  0  0  0  0  0  0  0  0  0  0  0
   -6.0874   -0.7624  -18.4790 N   0  0  0  0  0  0  0  0  0  0  0  0
   -5.0210    0.2870  -18.3723 C   0  0  0  0  0  0  0  0  0  0  0  0
   -4.2131    0.6608  -19.5796 C   0  0  0  0  0  0  0  0  0  0  0  0
   -3.1466    1.7102  -19.4728 C   0  0  0  0  0  0  0  0  0  0  0  0
   -2.3387    2.0840  -20.6801 C   0  0  0  0  0  0  0  0  0  0  0  0
   -2.5973    1.4084  -21.9941 C   0  0  0  0  0  0  0  0  0  0  0  0
   -3.6637    0.3590  -22.1009 C   0  0  0  0  0  0  0  0  0  0  0  0
   -4.4716   -0.0148  -20.8936 C   0  0  0  0  0  0  0  0  0  0  0  0
  1  2  2  0  0  0
  2 15  1  0  0  0
 15 16  1  0  0  0
 16 17  2  0  0  0
 17 18  1  0  0  0
 18 19  2  0  0  0
 19 20  1  0  0  0
 20 21  2  0  0  0
 21 22  1  0  0  0
 22 23  2  0  0  0
 23 24  1  0  0  0
 24 25  2  0  0  0
  2  3  1  0  0  0
  3  4  1  0  0  0
  4  5  1  0  0  0
  5  6  1  0  0  0
  6  7  1  0  0  0
  7  8  1  0  0  0
  8  9  2  0  0  0
  9 10  1  0  0  0
 10 11  2  0  0  0
 11 12  1  0  0  0
 12 13  1  0  0  0
 12 14  2  0  0  0
 25 16  1  0  0  0
  7  3  1  0  0  0
 14  8  1  0  0  0
 25 20  1  0  0  0
M  END
> <minimizedAffinity>
-6.38526

> <CNNscore>
0.3630081713

> <CNNaffinity>
5.2508912086

> <CNN_VS>
1.9061163664

> <CNNaffinity_variance>
0.1646979451

$$$$



 25 28  0  0  0  0  0  0  0  0999 V2000
   -9.2221   -2.0624  -24.1777 O   0  0  0  0  0  0  0  0  0  0  0  0
   -8.4393   -3.3401  -24.1092 C   0  0  0  0  0  0  0  0  0  0  0  0
   -8.9340   -4.5621  -24.8247 N   0  0  0  0  0  0  0  0  0  0  0  0
  -10.1872   -4.6576  -25.6434 C   0  0  0  0  0  0  0  0  0  0  0  0
  -10.2902   -6.0577  -26.1718 C   0  0  0  0  0  0  0  0  0  0  0  0
   -9.1006   -6.8275  -25.6796 C   0  0  0  0  0  0  0  0  0  0  0  0
   -8.2625   -5.9032  -24.8471 C   0  0  0  0  0  0  0  0  0  0  0  0
   -6.9782   -6.2578  -24.1579 C   0  0  0  0  0  0  0  0  0  0  0  0
   -5.6997   -6.3201  -24.9400 C   0  0  0  0  0  0  0  0  0  0  0  0
   -4.4155   -6.6747  -24.2509 C   0  0  0  0  0  0  0  0  0  0  0  0
   -4.4096   -6.9669  -22.7796 C   0  0  0  0  0  0  0  0  0  0  0  0
   -5.6881   -6.9045  -21.9975 C   0  0  0  0  0  0  0  0  0  0  0  0
   -5.6823   -7.1968  -20.5263 F   0  0  0  0  0  0  0  0  0  0  0  0
   -6.9724   -6.5500  -22.6867 C   0  0  0  0  0  0  0  0  0  0  0  0
   -7.1617   -3.3958  -23.3252 C   0  0  0  0  0  0  0  0  0  0  0  0
   -6.1651   -2.2801  -23.4351 C   0  0  0  0  0  0  0  0  0  0  0  0
   -5.6436   -1.8701  -24.7803 C   0  0  0  0  0  0  0  0  0  0  0  0
   -4.6469   -0.7544  -24.8902 N   0  0  0  0  0  0  0  0  0  0  0  0
   -4.1718   -0.0488  -23.6548 C   0  0  0  0  0  0  0  0  0  0  0  0
   -4.6934   -0.4589  -22.3094 C   0  0  0  0  0  0  0  0  0  0  0  0
   -4.2183    0.2468  -21.0739 C   0  0  0  0  0  0  0  0  0  0  0  0
   -4.7398   -0.1633  -19.7287 C   0  0  0  0  0  0  0  0  0  0  0  0
   -5.7364   -1.2789  -19.6188 C   0  0  0  0  0  0  0  0  0  0  0  0
   -6.2115   -1.9846  -20.8542 C   0  0  0  0  0  0  0  0  0  0  0  0
   -5.6900   -1.5745  -22.1995 C   0  0  0  0  0  0  0  0  0  0  0  0
  1  2  2  0  0  0
  2 15  1  0  0  0
 15 16  1  0  0  0
 16 17  2  0  0  0
 17 18  1  0  0  0
 18 19  2  0  0  0
 19 20  1  0  0  0
 20 21  2  0  0  0
 21 22  1  0  0  0
 22 23  2  0  0  0
 23 24  1  0  0  0
 24 25  2  0  0  0
  2  3  1  0  0  0
  3  4  1  0  0  0
  4  5  1  0  0  0
  5  6  1  0  0  0
  6  7  1  0  0  0
  7  8  1  0  0  0
  8  9  2  0  0  0
  9 10  1  0  0  0
 10 11  2  0  0  0
 11 12  1  0  0  0
 12 13  1  0  0  0
 12 14  2  0  0  0
 25 16  1  0  0  0
  7  3  1  0  0  0
 14  8  1  0  0  0
 25 20  1  0  0  0
M  END
> <minimizedAffinity>
-6.77088

> <CNNscore>
0.3030093908

> <CNNaffinity>
5.2733621597

> <CNN_VS>
1.5978782177

> <CNNaffinity_variance>
0.1653019488

$$$$



 25 28  0  0  0  0  0  0  0  0999 V2000
   -5.1219   -5.0026  -21.4405 O   0  0  0  0  0  0  0  0  0  0  0  0
   -6.1356   -3.9293  -21.7060 C   0  0  0  0  0  0  0  0  0  0  0  0
   -6.1759   -2.7051  -20.8401 N   0  0  0  0  0  0  0  0  0  0  0  0
   -5.2716   -2.4164  -19.6787 C   0  0  0  0  0  0  0  0  0  0  0  0
   -5.6645   -1.0876  -19.1043 C   0  0  0  0  0  0  0  0  0  0  0  0
   -6.8116   -0.5550  -19.9108 C   0  0  0  0  0  0  0  0  0  0  0  0
   -7.1277   -1.5547  -20.9835 C   0  0  0  0  0  0  0  0  0  0  0  0
   -8.2063   -1.4264  -22.0180 C   0  0  0  0  0  0  0  0  0  0  0  0
   -7.9656   -0.6136  -23.2557 C   0  0  0  0  0  0  0  0  0  0  0  0
   -9.0441   -0.4854  -24.2902 C   0  0  0  0  0  0  0  0  0  0  0  0
  -10.3634   -1.1698  -24.0872 C   0  0  0  0  0  0  0  0  0  0  0  0
  -10.6040   -1.9825  -22.8496 C   0  0  0  0  0  0  0  0  0  0  0  0
  -11.9233   -2.6669  -22.6466 F   0  0  0  0  0  0  0  0  0  0  0  0
   -9.5255   -2.1107  -21.8151 C   0  0  0  0  0  0  0  0  0  0  0  0
   -7.1089   -4.0801  -22.8373 C   0  0  0  0  0  0  0  0  0  0  0  0
   -6.8313   -5.0583  -23.9400 C   0  0  0  0  0  0  0  0  0  0  0  0
   -5.4874   -5.7175  -24.0373 C   0  0  0  0  0  0  0  0  0  0  0  0
   -5.2099   -6.6957  -25.1400 N   0  0  0  0  0  0  0  0  0  0  0  0
   -6.2762   -7.0148  -26.1455 C   0  0  0  0  0  0  0  0  0  0  0  0
   -7.6202   -6.3556  -26.0483 C   0  0  0  0  0  0  0  0  0  0  0  0
   -8.6865   -6.6747  -27.0538 C   0  0  0  0  0  0  0  0  0  0  0  0
  -10.0304   -6.0156  -26.9566 C   0  0  0  0  0  0  0  0  0  0  0  0
  -10.3079   -5.0374  -25.8538 C   0  0  0  0  0  0  0  0  0  0  0  0
   -9.2416   -4.7183  -24.8483 C   0  0  0  0  0  0  0  0  0  0  0  0
   -7.8977   -5.3774  -24.9456 C   0  0  0  0  0  0  0  0  0  0  0  0
  1  2  2  0  0  0
  2 15  1  0  0  0
 15 16  1  0  0  0
 16 17  2  0  0  0
 17 18  1  0  0  0
 18 19  2  0  0  0
 19 20  1  0  0  0
 20 21  2  0  0  0
 21 22  1  0  0  0
 22 23  2  0  0  0
 23 24  1  0  0  0
 24 25  2  0  0  0
  2  3  1  0  0  0
  3  4  1  0  0  0
  4  5  1  0  0  0
  5  6  1  0  0  0
  6  7  1  0  0  0
  7  8  1  0  0  0
  8  9  2  0  0  0
  9 10  1  0  0  0
 10 11  2  0  0  0
 11 12  1  0  0  0
 12 13  1  0  0  0
 12 14  2  0  0  0
 25 16  1  0  0  0
  7  3  1  0  0  0
 14  8  1  0  0  0
 25 20  1  0  0  0
M  END
> <minimizedAffinity>
-6.37362

> <CNNscore>
0.2981979251

> <CNNaffinity>
5.3125610352

> <CNN_VS>
1.5841946602

> <CNNaffinity_variance>
0.1962648332

$$$$
