


 27 30  0  0  0  0  0  0  0  0999 V2000
  -10.5060   -0.4426  -22.6686 O   0  0  0  0  0  0  0  0  0  0  0  0
   -9.0491   -0.6687  -22.9455 C   0  0  0  0  0  0  0  0  0  0  0  0
   -8.6163   -1.8434  -23.7719 N   0  0  0  0  0  0  0  0  0  0  0  0
   -7.1275   -1.9076  -23.9428 C   0  0  0  0  0  0  0  0  0  0  0  0
   -6.1796   -2.8332  -24.6461 C   0  0  0  0  0  0  0  0  0  0  0  0
   -6.3277   -4.0780  -25.4698 C   0  0  0  0  0  0  0  0  0  0  0  0
   -7.4853   -4.9128  -25.9314 C   0  0  0  0  0  0  0  0  0  0  0  0
   -8.9741   -4.8486  -25.7606 C   0  0  0  0  0  0  0  0  0  0  0  0
   -9.9222   -3.9229  -25.0572 C   0  0  0  0  0  0  0  0  0  0  0  0
   -9.7739   -2.6781  -24.2335 C   0  0  0  0  0  0  0  0  0  0  0  0
  -11.0927   -2.1425  -23.7605 C   0  0  0  0  0  0  0  0  0  0  0  0
  -11.8168   -2.8191  -22.6345 C   0  0  0  0  0  0  0  0  0  0  0  0
  -13.1356   -2.2834  -22.1615 C   0  0  0  0  0  0  0  0  0  0  0  0
  -13.7304   -1.0710  -22.8145 C   0  0  0  0  0  0  0  0  0  0  0  0
  -13.0064   -0.3944  -23.9406 C   0  0  0  0  0  0  0  0  0  0  0  0
  -11.6875   -0.9302  -24.4135 C   0  0  0  0  0  0  0  0  0  0  0  0
   -8.0252    0.2797  -22.3961 C   0  0  0  0  0  0  0  0  0  0  0  0
   -7.2426   -0.0889  -21.1706 C   0  0  0  0  0  0  0  0  0  0  0  0
   -7.7451   -1.1661  -20.2557 C   0  0  0  0  0  0  0  0  0  0  0  0
   -6.9626   -1.5347  -19.0303 N   0  0  0  0  0  0  0  0  0  0  0  0
   -5.6775   -0.8262  -18.7198 C   0  0  0  0  0  0  0  0  0  0  0  0
   -5.1749    0.2511  -19.6347 C   0  0  0  0  0  0  0  0  0  0  0  0
   -3.8899    0.9597  -19.3242 C   0  0  0  0  0  0  0  0  0  0  0  0
   -3.3874    2.0369  -20.2391 C   0  0  0  0  0  0  0  0  0  0  0  0
   -4.1699    2.4055  -21.4645 C   0  0  0  0  0  0  0  0  0  0  0  0
   -5.4550    1.6969  -21.7750 C   0  0  0  0  0  0  0  0  0  0  0  0
   -5.9575    0.6197  -20.8601 C   0  0  0  0  0  0  0  0  0  0  0  0
  1  2  2  0  0  0
  2 17  1  0  0  0
 17 18  1  0  0  0
 18 19  2  0  0  0
 19 20  1  0  0  0
 20 21  2  0  0  0
 21 22  1  0  0  0
 22 23  2  0  0  0
 23 24  1  0  0  0
 24 25  2  0  0  0
 25 26  1  0  0  0
 26 27  2  0  0  0
  2  3  1  0  0  0
  3  4  1  0  0  0
  4  5  2  0  0  0
  5  6  1  0  0  0
  6  7  2  0  0  0
  7  8  1  0  0  0
  8  9  2  0  0  0
  9 10  1  0  0  0
 10 11  1  0  0  0
 11 12  2  0  0  0
 12 13  1  0  0  0
 13 14  2  0  0  0
 14 15  1  0  0  0
 15 16  2  0  0  0
 27 18  1  0  0  0
 10  3  1  0  0  0
 16 11  1  0  0  0
 27 22  1  0  0  0
M  END
> <minimizedAffinity>
-7.26887

> <CNNscore>
0.5222389698

> <CNNaffinity>
5.8533735275

> <CNN_VS>
3.0568597317

> <CNNaffinity_variance>
0.0818684027

$$$$



 27 30  0  0  0  0  0  0  0  0999 V2000
   -7.9024   -0.9639  -22.4996 O   0  0  0  0  0  0  0  0  0  0  0  0
   -7.3462   -2.3561  -22.4477 C   0  0  0  0  0  0  0  0  0  0  0  0
   -7.8656   -3.4065  -23.3841 N   0  0  0  0  0  0  0  0  0  0  0  0
   -7.1940   -4.7333  -23.1877 C   0  0  0  0  0  0  0  0  0  0  0  0
   -7.3133   -6.0868  -23.8230 C   0  0  0  0  0  0  0  0  0  0  0  0
   -8.1537   -6.6744  -24.9179 C   0  0  0  0  0  0  0  0  0  0  0  0
   -9.2228   -6.1516  -25.8309 C   0  0  0  0  0  0  0  0  0  0  0  0
   -9.8944   -4.8248  -26.0273 C   0  0  0  0  0  0  0  0  0  0  0  0
   -9.7751   -3.4711  -25.3920 C   0  0  0  0  0  0  0  0  0  0  0  0
   -8.9347   -2.8837  -24.2971 C   0  0  0  0  0  0  0  0  0  0  0  0
   -9.2336   -1.4332  -24.0596 C   0  0  0  0  0  0  0  0  0  0  0  0
   -8.4550   -0.3779  -24.7877 C   0  0  0  0  0  0  0  0  0  0  0  0
   -8.7540    1.0727  -24.5501 C   0  0  0  0  0  0  0  0  0  0  0  0
   -9.8316    1.4680  -23.5845 C   0  0  0  0  0  0  0  0  0  0  0  0
  -10.6103    0.4127  -22.8565 C   0  0  0  0  0  0  0  0  0  0  0  0
  -10.3113   -1.0378  -23.0940 C   0  0  0  0  0  0  0  0  0  0  0  0
   -6.2707   -2.6977  -21.4596 C   0  0  0  0  0  0  0  0  0  0  0  0
   -5.8310   -1.6810  -20.4481 C   0  0  0  0  0  0  0  0  0  0  0  0
   -6.3298   -1.7636  -19.0360 C   0  0  0  0  0  0  0  0  0  0  0  0
   -5.8901   -0.7469  -18.0245 N   0  0  0  0  0  0  0  0  0  0  0  0
   -4.9516    0.3524  -18.4253 C   0  0  0  0  0  0  0  0  0  0  0  0
   -4.4528    0.4351  -19.8376 C   0  0  0  0  0  0  0  0  0  0  0  0
   -3.5143    1.5344  -20.2383 C   0  0  0  0  0  0  0  0  0  0  0  0
   -3.0155    1.6171  -21.6505 C   0  0  0  0  0  0  0  0  0  0  0  0
   -3.4552    0.6003  -22.6619 C   0  0  0  0  0  0  0  0  0  0  0  0
   -4.3936   -0.4990  -22.2612 C   0  0  0  0  0  0  0  0  0  0  0  0
   -4.8924   -0.5816  -20.8490 C   0  0  0  0  0  0  0  0  0  0  0  0
  1  2  2  0  0  0
  2 17  1  0  0  0
 17 18  1  0  0  0
 18 19  2  0  0  0
 19 20  1  0  0  0
 20 21  2  0  0  0
 21 22  1  0  0  0
 22 23  2  0  0  0
 23 24  1  0  0  0
 24 25  2  0  0  0
 25 26  1  0  0  0
 26 27  2  0  0  0
  2  3  1  0  0  0
  3  4  1  0  0  0
  4  5  2  0  0  0
  5  6  1  0  0  0
  6  7  2  0  0  0
  7  8  1  0  0  0
  8  9  2  0  0  0
  9 10  1  0  0  0
 10 11  1  0  0  0
 11 12  2  0  0  0
 12 13  1  0  0  0
 13 14  2  0  0  0
 14 15  1  0  0  0
 15 16  2  0  0  0
 27 18  1  0  0  0
 10  3  1  0  0  0
 16 11  1  0  0  0
 27 22  1  0  0  0
M  END
> <minimizedAffinity>
-7.59234

> <CNNscore>
0.4471614957

> <CNNaffinity>
5.4677762985

> <CNN_VS>
2.4449789524

> <CNNaffinity_variance>
0.5963396430

$$$$



 27 30  0  0  0  0  0  0  0  0999 V2000
  -10.5662   -1.2783  -22.1837 O   0  0  0  0  0  0  0  0  0  0  0  0
   -9.2227   -1.9376  -22.2852 C   0  0  0  0  0  0  0  0  0  0  0  0
   -9.0031   -3.0443  -23.2736 N   0  0  0  0  0  0  0  0  0  0  0  0
   -7.6030   -3.5808  -23.2330 C   0  0  0  0  0  0  0  0  0  0  0  0
   -6.8550   -4.6501  -23.9727 C   0  0  0  0  0  0  0  0  0  0  0  0
   -7.1973   -5.6258  -25.0594 C   0  0  0  0  0  0  0  0  0  0  0  0
   -8.4294   -5.9363  -25.8566 C   0  0  0  0  0  0  0  0  0  0  0  0
   -9.8296   -5.3997  -25.8972 C   0  0  0  0  0  0  0  0  0  0  0  0
  -10.5776   -4.3304  -25.1575 C   0  0  0  0  0  0  0  0  0  0  0  0
  -10.2352   -3.3548  -24.0708 C   0  0  0  0  0  0  0  0  0  0  0  0
  -11.3978   -2.4857  -23.6925 C   0  0  0  0  0  0  0  0  0  0  0  0
  -11.5759   -1.1460  -24.3432 C   0  0  0  0  0  0  0  0  0  0  0  0
  -12.7385   -0.2770  -23.9649 C   0  0  0  0  0  0  0  0  0  0  0  0
  -13.7232   -0.7478  -22.9359 C   0  0  0  0  0  0  0  0  0  0  0  0
  -13.5452   -2.0875  -22.2852 C   0  0  0  0  0  0  0  0  0  0  0  0
  -12.3825   -2.9564  -22.6635 C   0  0  0  0  0  0  0  0  0  0  0  0
   -8.0988   -1.4902  -21.3983 C   0  0  0  0  0  0  0  0  0  0  0  0
   -7.1937   -0.3778  -21.8380 C   0  0  0  0  0  0  0  0  0  0  0  0
   -7.3614    0.2325  -23.1979 C   0  0  0  0  0  0  0  0  0  0  0  0
   -6.4563    1.3449  -23.6375 N   0  0  0  0  0  0  0  0  0  0  0  0
   -5.3834    1.8470  -22.7174 C   0  0  0  0  0  0  0  0  0  0  0  0
   -5.2156    1.2367  -21.3574 C   0  0  0  0  0  0  0  0  0  0  0  0
   -4.1428    1.7388  -20.4372 C   0  0  0  0  0  0  0  0  0  0  0  0
   -3.9750    1.1284  -19.0773 C   0  0  0  0  0  0  0  0  0  0  0  0
   -4.8801    0.0160  -18.6376 C   0  0  0  0  0  0  0  0  0  0  0  0
   -5.9530   -0.4861  -19.5578 C   0  0  0  0  0  0  0  0  0  0  0  0
   -6.1207    0.1243  -20.9177 C   0  0  0  0  0  0  0  0  0  0  0  0
  1  2  2  0  0  0
  2 17  1  0  0  0
 17 18  1  0  0  0
 18 19  2  0  0  0
 19 20  1  0  0  0
 20 21  2  0  0  0
 21 22  1  0  0  0
 22 23  2  0  0  0
 23 24  1  0  0  0
 24 25  2  0  0  0
 25 26  1  0  0  0
 26 27  2  0  0  0
  2  3  1  0  0  0
  3  4  1  0  0  0
  4  5  2  0  0  0
  5  6  1  0  0  0
  6  7  2  0  0  0
  7  8  1  0  0  0
  8  9  2  0  0  0
  9 10  1  0  0  0
 10 11  1  0  0  0
 11 12  2  0  0  0
 12 13  1  0  0  0
 13 14  2  0  0  0
 14 15  1  0  0  0
 15 16  2  0  0  0
 27 18  1  0  0  0
 10  3  1  0  0  0
 16 11  1  0  0  0
 27 22  1  0  0  0
M  END
> <minimizedAffinity>
-7.11972

> <CNNscore>
0.3846592009

> <CNNaffinity>
5.6608066559

> <CNN_VS>
2.1774814129

> <CNNaffinity_variance>
0.0780282617

$$$$



 27 30  0  0  0  0  0  0  0  0999 V2000
   -6.1208   -4.4349  -22.8166 O   0  0  0  0  0  0  0  0  0  0  0  0
   -6.9083   -3.5831  -23.7676 C   0  0  0  0  0  0  0  0  0  0  0  0
   -7.6382   -4.2174  -24.9143 N   0  0  0  0  0  0  0  0  0  0  0  0
   -8.3684   -3.2131  -25.7559 C   0  0  0  0  0  0  0  0  0  0  0  0
   -9.2294   -3.2826  -26.9821 C   0  0  0  0  0  0  0  0  0  0  0  0
   -9.7171   -4.3851  -27.8748 C   0  0  0  0  0  0  0  0  0  0  0  0
   -9.5456   -5.8748  -27.9107 C   0  0  0  0  0  0  0  0  0  0  0  0
   -8.8155   -6.8791  -27.0691 C   0  0  0  0  0  0  0  0  0  0  0  0
   -7.9544   -6.8096  -25.8428 C   0  0  0  0  0  0  0  0  0  0  0  0
   -7.4668   -5.7071  -24.9503 C   0  0  0  0  0  0  0  0  0  0  0  0
   -6.6056   -6.2130  -23.8312 C   0  0  0  0  0  0  0  0  0  0  0  0
   -5.1234   -6.3396  -24.0236 C   0  0  0  0  0  0  0  0  0  0  0  0
   -4.2624   -6.8456  -22.9044 C   0  0  0  0  0  0  0  0  0  0  0  0
   -4.8835   -7.2250  -21.5928 C   0  0  0  0  0  0  0  0  0  0  0  0
   -6.3657   -7.0985  -21.4004 C   0  0  0  0  0  0  0  0  0  0  0  0
   -7.2267   -6.5925  -22.5196 C   0  0  0  0  0  0  0  0  0  0  0  0
   -6.9659   -2.0971  -23.5718 C   0  0  0  0  0  0  0  0  0  0  0  0
   -6.7646   -1.5122  -22.2053 C   0  0  0  0  0  0  0  0  0  0  0  0
   -7.7743   -1.7649  -21.1252 C   0  0  0  0  0  0  0  0  0  0  0  0
   -7.5731   -1.1800  -19.7586 N   0  0  0  0  0  0  0  0  0  0  0  0
   -6.3621   -0.3426  -19.4722 C   0  0  0  0  0  0  0  0  0  0  0  0
   -5.3523   -0.0899  -20.5523 C   0  0  0  0  0  0  0  0  0  0  0  0
   -4.1412    0.7475  -20.2658 C   0  0  0  0  0  0  0  0  0  0  0  0
   -3.1315    1.0001  -21.3459 C   0  0  0  0  0  0  0  0  0  0  0  0
   -3.3328    0.4153  -22.7124 C   0  0  0  0  0  0  0  0  0  0  0  0
   -4.5438   -0.4221  -22.9989 C   0  0  0  0  0  0  0  0  0  0  0  0
   -5.5535   -0.6748  -21.9188 C   0  0  0  0  0  0  0  0  0  0  0  0
  1  2  2  0  0  0
  2 17  1  0  0  0
 17 18  1  0  0  0
 18 19  2  0  0  0
 19 20  1  0  0  0
 20 21  2  0  0  0
 21 22  1  0  0  0
 22 23  2  0  0  0
 23 24  1  0  0  0
 24 25  2  0  0  0
 25 26  1  0  0  0
 26 27  2  0  0  0
  2  3  1  0  0  0
  3  4  1  0  0  0
  4  5  2  0  0  0
  5  6  1  0  0  0
  6  7  2  0  0  0
  7  8  1  0  0  0
  8  9  2  0  0  0
  9 10  1  0  0  0
 10 11  1  0  0  0
 11 12  2  0  0  0
 12 13  1  0  0  0
 13 14  2  0  0  0
 14 15  1  0  0  0
 15 16  2  0  0  0
 27 18  1  0  0  0
 10  3  1  0  0  0
 16 11  1  0  0  0
 27 22  1  0  0  0
M  END
> <minimizedAffinity>
-6.71763

> <CNNscore>
0.3727927506

> <CNNaffinity>
5.6053333282

> <CNN_VS>
2.0896277428

> <CNNaffinity_variance>
0.0778854862

$$$$



 27 30  0  0  0  0  0  0  0  0999 V2000
   -7.7973    1.4542  -23.7408 O   0  0  0  0  0  0  0  0  0  0  0  0
   -8.2072    0.1391  -23.1470 C   0  0  0  0  0  0  0  0  0  0  0  0
   -9.6521   -0.2638  -23.1421 N   0  0  0  0  0  0  0  0  0  0  0  0
   -9.8715   -1.6060  -22.5094 C   0  0  0  0  0  0  0  0  0  0  0  0
  -11.0683   -2.4703  -22.2436 C   0  0  0  0  0  0  0  0  0  0  0  0
  -12.5414   -2.3505  -22.5003 C   0  0  0  0  0  0  0  0  0  0  0  0
  -13.4277   -1.3166  -23.1292 C   0  0  0  0  0  0  0  0  0  0  0  0
  -13.2082    0.0255  -23.7619 C   0  0  0  0  0  0  0  0  0  0  0  0
  -12.0114    0.8900  -24.0278 C   0  0  0  0  0  0  0  0  0  0  0  0
  -10.5384    0.7700  -23.7710 C   0  0  0  0  0  0  0  0  0  0  0  0
   -9.7720    1.9642  -24.2573 C   0  0  0  0  0  0  0  0  0  0  0  0
   -9.1261    1.9406  -25.6109 C   0  0  0  0  0  0  0  0  0  0  0  0
   -8.3597    3.1348  -26.0971 C   0  0  0  0  0  0  0  0  0  0  0  0
   -8.2392    4.3527  -25.2298 C   0  0  0  0  0  0  0  0  0  0  0  0
   -8.8850    4.3763  -23.8761 C   0  0  0  0  0  0  0  0  0  0  0  0
   -9.6514    3.1820  -23.3900 C   0  0  0  0  0  0  0  0  0  0  0  0
   -7.1722   -0.7731  -22.5582 C   0  0  0  0  0  0  0  0  0  0  0  0
   -6.6238   -0.5003  -21.1890 C   0  0  0  0  0  0  0  0  0  0  0  0
   -7.3752   -0.9599  -19.9748 C   0  0  0  0  0  0  0  0  0  0  0  0
   -6.8267   -0.6871  -18.6056 N   0  0  0  0  0  0  0  0  0  0  0  0
   -5.5269    0.0453  -18.4505 C   0  0  0  0  0  0  0  0  0  0  0  0
   -4.7755    0.5049  -19.6647 C   0  0  0  0  0  0  0  0  0  0  0  0
   -3.4757    1.2373  -19.5096 C   0  0  0  0  0  0  0  0  0  0  0  0
   -2.7243    1.6968  -20.7238 C   0  0  0  0  0  0  0  0  0  0  0  0
   -3.2727    1.4240  -22.0930 C   0  0  0  0  0  0  0  0  0  0  0  0
   -4.5725    0.6917  -22.2481 C   0  0  0  0  0  0  0  0  0  0  0  0
   -5.3239    0.2321  -21.0339 C   0  0  0  0  0  0  0  0  0  0  0  0
  1  2  2  0  0  0
  2 17  1  0  0  0
 17 18  1  0  0  0
 18 19  2  0  0  0
 19 20  1  0  0  0
 20 21  2  0  0  0
 21 22  1  0  0  0
 22 23  2  0  0  0
 23 24  1  0  0  0
 24 25  2  0  0  0
 25 26  1  0  0  0
 26 27  2  0  0  0
  2  3  1  0  0  0
  3  4  1  0  0  0
  4  5  2  0  0  0
  5  6  1  0  0  0
  6  7  2  0  0  0
  7  8  1  0  0  0
  8  9  2  0  0  0
  9 10  1  0  0  0
 10 11  1  0  0  0
 11 12  2  0  0  0
 12 13  1  0  0  0
 13 14  2  0  0  0
 14 15  1  0  0  0
 15 16  2  0  0  0
 27 18  1  0  0  0
 10  3  1  0  0  0
 16 11  1  0  0  0
 27 22  1  0  0  0
M  END
> <minimizedAffinity>
-6.80775

> <CNNscore>
0.3131872118

> <CNNaffinity>
5.5077190399

> <CNN_VS>
1.7249472141

> <CNNaffinity_variance>
0.0912954360

$$$$



 27 30  0  0  0  0  0  0  0  0999 V2000
   -5.7028    1.3502  -21.2064 O   0  0  0  0  0  0  0  0  0  0  0  0
   -5.1172    2.6136  -21.7640 C   0  0  0  0  0  0  0  0  0  0  0  0
   -3.7025    2.9917  -21.4390 N   0  0  0  0  0  0  0  0  0  0  0  0
   -3.2911    4.2825  -22.0828 C   0  0  0  0  0  0  0  0  0  0  0  0
   -2.0378    5.1066  -22.1007 C   0  0  0  0  0  0  0  0  0  0  0  0
   -0.6769    4.9812  -21.4823 C   0  0  0  0  0  0  0  0  0  0  0  0
   -0.0057    3.9798  -20.5898 C   0  0  0  0  0  0  0  0  0  0  0  0
   -0.4172    2.6890  -19.9461 C   0  0  0  0  0  0  0  0  0  0  0  0
   -1.6705    1.8649  -19.9281 C   0  0  0  0  0  0  0  0  0  0  0  0
   -3.0313    1.9903  -20.5465 C   0  0  0  0  0  0  0  0  0  0  0  0
   -3.9322    0.8457  -20.1884 C   0  0  0  0  0  0  0  0  0  0  0  0
   -4.2234   -0.2242  -21.1986 C   0  0  0  0  0  0  0  0  0  0  0  0
   -5.1243   -1.3687  -20.8403 C   0  0  0  0  0  0  0  0  0  0  0  0
   -5.7340   -1.4434  -19.4719 C   0  0  0  0  0  0  0  0  0  0  0  0
   -5.4428   -0.3735  -18.4617 C   0  0  0  0  0  0  0  0  0  0  0  0
   -4.5419    0.7710  -18.8199 C   0  0  0  0  0  0  0  0  0  0  0  0
   -5.9464    3.4989  -22.6465 C   0  0  0  0  0  0  0  0  0  0  0  0
   -6.9375    2.8945  -23.5964 C   0  0  0  0  0  0  0  0  0  0  0  0
   -6.6438    1.5759  -24.2482 C   0  0  0  0  0  0  0  0  0  0  0  0
   -7.6349    0.9714  -25.1981 N   0  0  0  0  0  0  0  0  0  0  0  0
   -8.9198    1.6857  -25.4962 C   0  0  0  0  0  0  0  0  0  0  0  0
   -9.2136    3.0044  -24.8444 C   0  0  0  0  0  0  0  0  0  0  0  0
  -10.4985    3.7186  -25.1425 C   0  0  0  0  0  0  0  0  0  0  0  0
  -10.7922    5.0373  -24.4907 C   0  0  0  0  0  0  0  0  0  0  0  0
   -9.8010    5.6417  -23.5408 C   0  0  0  0  0  0  0  0  0  0  0  0
   -8.5162    4.9274  -23.2427 C   0  0  0  0  0  0  0  0  0  0  0  0
   -8.2224    3.6088  -23.8945 C   0  0  0  0  0  0  0  0  0  0  0  0
  1  2  2  0  0  0
  2 17  1  0  0  0
 17 18  1  0  0  0
 18 19  2  0  0  0
 19 20  1  0  0  0
 20 21  2  0  0  0
 21 22  1  0  0  0
 22 23  2  0  0  0
 23 24  1  0  0  0
 24 25  2  0  0  0
 25 26  1  0  0  0
 26 27  2  0  0  0
  2  3  1  0  0  0
  3  4  1  0  0  0
  4  5  2  0  0  0
  5  6  1  0  0  0
  6  7  2  0  0  0
  7  8  1  0  0  0
  8  9  2  0  0  0
  9 10  1  0  0  0
 10 11  1  0  0  0
 11 12  2  0  0  0
 12 13  1  0  0  0
 13 14  2  0  0  0
 14 15  1  0  0  0
 15 16  2  0  0  0
 27 18  1  0  0  0
 10  3  1  0  0  0
 16 11  1  0  0  0
 27 22  1  0  0  0
M  END
> <minimizedAffinity>
-6.45036

> <CNNscore>
0.2722429633

> <CNNaffinity>
4.8760480881

> <CNN_VS>
1.3274698257

> <CNNaffinity_variance>
0.0991256759

$$$$



 27 30  0  0  0  0  0  0  0  0999 V2000
   -6.2649   -4.5052  -22.7268 O   0  0  0  0  0  0  0  0  0  0  0  0
   -7.0967   -3.6596  -23.6450 C   0  0  0  0  0  0  0  0  0  0  0  0
   -7.7547   -4.2773  -24.8431 N   0  0  0  0  0  0  0  0  0  0  0  0
   -8.5429   -3.2821  -25.6420 C   0  0  0  0  0  0  0  0  0  0  0  0
   -9.3729   -3.3427  -26.8899 C   0  0  0  0  0  0  0  0  0  0  0  0
   -9.7587   -4.4236  -27.8558 C   0  0  0  0  0  0  0  0  0  0  0  0
   -9.4742   -5.8916  -27.9738 C   0  0  0  0  0  0  0  0  0  0  0  0
   -8.6860   -6.8869  -27.1749 C   0  0  0  0  0  0  0  0  0  0  0  0
   -7.8559   -6.8263  -25.9269 C   0  0  0  0  0  0  0  0  0  0  0  0
   -7.4702   -5.7453  -24.9610 C   0  0  0  0  0  0  0  0  0  0  0  0
   -6.5944   -6.2512  -23.8533 C   0  0  0  0  0  0  0  0  0  0  0  0
   -7.2058   -6.6994  -22.5590 C   0  0  0  0  0  0  0  0  0  0  0  0
   -6.3299   -7.2053  -21.4513 C   0  0  0  0  0  0  0  0  0  0  0  0
   -4.8426   -7.2630  -21.6379 C   0  0  0  0  0  0  0  0  0  0  0  0
   -4.2313   -6.8147  -22.9323 C   0  0  0  0  0  0  0  0  0  0  0  0
   -5.1072   -6.3089  -24.0399 C   0  0  0  0  0  0  0  0  0  0  0  0
   -7.2705   -2.1962  -23.3651 C   0  0  0  0  0  0  0  0  0  0  0  0
   -6.0958   -1.3712  -22.9298 C   0  0  0  0  0  0  0  0  0  0  0  0
   -5.0717   -0.9352  -23.9353 C   0  0  0  0  0  0  0  0  0  0  0  0
   -3.8970   -0.1102  -23.5001 N   0  0  0  0  0  0  0  0  0  0  0  0
   -3.7464    0.2788  -22.0593 C   0  0  0  0  0  0  0  0  0  0  0  0
   -4.7706   -0.1572  -21.0537 C   0  0  0  0  0  0  0  0  0  0  0  0
   -4.6200    0.2319  -19.6129 C   0  0  0  0  0  0  0  0  0  0  0  0
   -5.6441   -0.2041  -18.6074 C   0  0  0  0  0  0  0  0  0  0  0  0
   -6.8188   -1.0291  -19.0426 C   0  0  0  0  0  0  0  0  0  0  0  0
   -6.9693   -1.4182  -20.4834 C   0  0  0  0  0  0  0  0  0  0  0  0
   -5.9452   -0.9822  -21.4889 C   0  0  0  0  0  0  0  0  0  0  0  0
  1  2  2  0  0  0
  2 17  1  0  0  0
 17 18  1  0  0  0
 18 19  2  0  0  0
 19 20  1  0  0  0
 20 21  2  0  0  0
 21 22  1  0  0  0
 22 23  2  0  0  0
 23 24  1  0  0  0
 24 25  2  0  0  0
 25 26  1  0  0  0
 26 27  2  0  0  0
  2  3  1  0  0  0
  3  4  1  0  0  0
  4  5  2  0  0  0
  5  6  1  0  0  0
  6  7  2  0  0  0
  7  8  1  0  0  0
  8  9  2  0  0  0
  9 10  1  0  0  0
 10 11  1  0  0  0
 11 12  2  0  0  0
 12 13  1  0  0  0
 13 14  2  0  0  0
 14 15  1  0  0  0
 15 16  2  0  0  0
 27 18  1  0  0  0
 10  3  1  0  0  0
 16 11  1  0  0  0
 27 22  1  0  0  0
M  END
> <minimizedAffinity>
-6.93116

> <CNNscore>
0.2378795147

> <CNNaffinity>
5.4445676804

> <CNN_VS>
1.2951511145

> <CNNaffinity_variance>
0.0367121063

$$$$



 27 30  0  0  0  0  0  0  0  0999 V2000
   -9.1669   -1.4330  -22.4982 O   0  0  0  0  0  0  0  0  0  0  0  0
   -8.2115   -2.5851  -22.5980 C   0  0  0  0  0  0  0  0  0  0  0  0
   -8.4819   -3.7025  -23.5614 N   0  0  0  0  0  0  0  0  0  0  0  0
   -7.4219   -4.7631  -23.5226 C   0  0  0  0  0  0  0  0  0  0  0  0
   -7.1899   -6.0576  -24.2440 C   0  0  0  0  0  0  0  0  0  0  0  0
   -7.9217   -6.8278  -25.3029 C   0  0  0  0  0  0  0  0  0  0  0  0
   -9.1888   -6.6224  -26.0791 C   0  0  0  0  0  0  0  0  0  0  0  0
  -10.2488   -5.5619  -26.1178 C   0  0  0  0  0  0  0  0  0  0  0  0
  -10.4809   -4.2672  -25.3965 C   0  0  0  0  0  0  0  0  0  0  0  0
   -9.7490   -3.4971  -24.3376 C   0  0  0  0  0  0  0  0  0  0  0  0
  -10.4483   -2.2226  -23.9682 C   0  0  0  0  0  0  0  0  0  0  0  0
   -9.9118   -0.9065  -24.4479 C   0  0  0  0  0  0  0  0  0  0  0  0
  -10.6112    0.3680  -24.0785 C   0  0  0  0  0  0  0  0  0  0  0  0
  -11.8471    0.3265  -23.2294 C   0  0  0  0  0  0  0  0  0  0  0  0
  -12.3835   -0.9896  -22.7497 C   0  0  0  0  0  0  0  0  0  0  0  0
  -11.6841   -2.2641  -23.1191 C   0  0  0  0  0  0  0  0  0  0  0  0
   -6.9856   -2.6197  -21.7343 C   0  0  0  0  0  0  0  0  0  0  0  0
   -5.9068   -1.5945  -21.9219 C   0  0  0  0  0  0  0  0  0  0  0  0
   -5.3188   -1.3648  -23.2826 C   0  0  0  0  0  0  0  0  0  0  0  0
   -4.2400   -0.3396  -23.4702 N   0  0  0  0  0  0  0  0  0  0  0  0
   -3.7491    0.4558  -22.2971 C   0  0  0  0  0  0  0  0  0  0  0  0
   -4.3371    0.2261  -20.9363 C   0  0  0  0  0  0  0  0  0  0  0  0
   -3.8462    1.0216  -19.7632 C   0  0  0  0  0  0  0  0  0  0  0  0
   -4.4341    0.7918  -18.4025 C   0  0  0  0  0  0  0  0  0  0  0  0
   -5.5129   -0.2333  -18.2149 C   0  0  0  0  0  0  0  0  0  0  0  0
   -6.0038   -1.0288  -19.3880 C   0  0  0  0  0  0  0  0  0  0  0  0
   -5.4159   -0.7991  -20.7487 C   0  0  0  0  0  0  0  0  0  0  0  0
  1  2  2  0  0  0
  2 17  1  0  0  0
 17 18  1  0  0  0
 18 19  2  0  0  0
 19 20  1  0  0  0
 20 21  2  0  0  0
 21 22  1  0  0  0
 22 23  2  0  0  0
 23 24  1  0  0  0
 24 25  2  0  0  0
 25 26  1  0  0  0
 26 27  2  0  0  0
  2  3  1  0  0  0
  3  4  1  0  0  0
  4  5  2  0  0  0
  5  6  1  0  0  0
  6  7  2  0  0  0
  7  8  1  0  0  0
  8  9  2  0  0  0
  9 10  1  0  0  0
 10 11  1  0  0  0
 11 12  2  0  0  0
 12 13  1  0  0  0
 13 14  2  0  0  0
 14 15  1  0  0  0
 15 16  2  0  0  0
 27 18  1  0  0  0
 10  3  1  0  0  0
 16 11  1  0  0  0
 27 22  1  0  0  0
M  END
> <minimizedAffinity>
-7.05923

> <CNNscore>
0.2325375080

> <CNNaffinity>
5.4269413948

> <CNN_VS>
1.2619674206

> <CNNaffinity_variance>
0.1116187423

$$$$



 27 30  0  0  0  0  0  0  0  0999 V2000
   -7.2122   -0.7067  -22.1416 O   0  0  0  0  0  0  0  0  0  0  0  0
   -7.8251   -1.7238  -23.0581 C   0  0  0  0  0  0  0  0  0  0  0  0
   -7.4151   -3.1635  -22.9620 N   0  0  0  0  0  0  0  0  0  0  0  0
   -8.1306   -4.0315  -23.9542 C   0  0  0  0  0  0  0  0  0  0  0  0
   -8.1132   -5.4930  -24.2916 C   0  0  0  0  0  0  0  0  0  0  0  0
   -7.3731   -6.6918  -23.7766 C   0  0  0  0  0  0  0  0  0  0  0  0
   -6.3438   -6.9255  -22.7108 C   0  0  0  0  0  0  0  0  0  0  0  0
   -5.6283   -6.0575  -21.7186 C   0  0  0  0  0  0  0  0  0  0  0  0
   -5.6456   -4.5959  -21.3812 C   0  0  0  0  0  0  0  0  0  0  0  0
   -6.3858   -3.3972  -21.8963 C   0  0  0  0  0  0  0  0  0  0  0  0
   -6.0079   -2.1366  -21.1766 C   0  0  0  0  0  0  0  0  0  0  0  0
   -4.9048   -1.2708  -21.7092 C   0  0  0  0  0  0  0  0  0  0  0  0
   -4.5271   -0.0101  -20.9894 C   0  0  0  0  0  0  0  0  0  0  0  0
   -5.2523    0.3848  -19.7372 C   0  0  0  0  0  0  0  0  0  0  0  0
   -6.3554   -0.4810  -19.2047 C   0  0  0  0  0  0  0  0  0  0  0  0
   -6.7332   -1.7416  -19.9244 C   0  0  0  0  0  0  0  0  0  0  0  0
   -8.8478   -1.3012  -24.0707 C   0  0  0  0  0  0  0  0  0  0  0  0
  -10.2906   -1.1868  -23.6767 C   0  0  0  0  0  0  0  0  0  0  0  0
  -11.0470   -2.4052  -23.2373 C   0  0  0  0  0  0  0  0  0  0  0  0
  -12.4898   -2.2908  -22.8433 N   0  0  0  0  0  0  0  0  0  0  0  0
  -13.1762   -0.9579  -22.8887 C   0  0  0  0  0  0  0  0  0  0  0  0
  -12.4198    0.2607  -23.3281 C   0  0  0  0  0  0  0  0  0  0  0  0
  -13.1062    1.5936  -23.3735 C   0  0  0  0  0  0  0  0  0  0  0  0
  -12.3498    2.8121  -23.8129 C   0  0  0  0  0  0  0  0  0  0  0  0
  -10.9070    2.6977  -24.2069 C   0  0  0  0  0  0  0  0  0  0  0  0
  -10.2206    1.3647  -24.1615 C   0  0  0  0  0  0  0  0  0  0  0  0
  -10.9770    0.1463  -23.7221 C   0  0  0  0  0  0  0  0  0  0  0  0
  1  2  2  0  0  0
  2 17  1  0  0  0
 17 18  1  0  0  0
 18 19  2  0  0  0
 19 20  1  0  0  0
 20 21  2  0  0  0
 21 22  1  0  0  0
 22 23  2  0  0  0
 23 24  1  0  0  0
 24 25  2  0  0  0
 25 26  1  0  0  0
 26 27  2  0  0  0
  2  3  1  0  0  0
  3  4  1  0  0  0
  4  5  2  0  0  0
  5  6  1  0  0  0
  6  7  2  0  0  0
  7  8  1  0  0  0
  8  9  2  0  0  0
  9 10  1  0  0  0
 10 11  1  0  0  0
 11 12  2  0  0  0
 12 13  1  0  0  0
 13 14  2  0  0  0
 14 15  1  0  0  0
 15 16  2  0  0  0
 27 18  1  0  0  0
 10  3  1  0  0  0
 16 11  1  0  0  0
 27 22  1  0  0  0
M  END
> <minimizedAffinity>
-7.59406

> <CNNscore>
0.2246000469

> <CNNaffinity>
5.4560160637

> <CNN_VS>
1.2254214287

> <CNNaffinity_variance>
0.3857381344

$$$$
