


 27 30  0  0  0  0  0  0  0  0999 V2000
    7.2815   -4.0918   23.8770 O   0  0  0  0  0  0  0  0  0  0  0  0
    7.2456   -3.3405   25.1748 C   0  0  0  0  0  0  0  0  0  0  0  0
    6.2985   -3.7614   26.2591 N   0  0  0  0  0  0  0  0  0  0  0  0
    6.4029   -2.8965   27.4801 C   0  0  0  0  0  0  0  0  0  0  0  0
    5.7213   -2.8604   28.8158 C   0  0  0  0  0  0  0  0  0  0  0  0
    4.6528   -3.6743   29.4837 C   0  0  0  0  0  0  0  0  0  0  0  0
    3.8235   -4.8614   29.0926 C   0  0  0  0  0  0  0  0  0  0  0  0
    3.7191   -5.7264   27.8716 C   0  0  0  0  0  0  0  0  0  0  0  0
    4.4008   -5.7625   26.5358 C   0  0  0  0  0  0  0  0  0  0  0  0
    5.4692   -4.9485   25.8679 C   0  0  0  0  0  0  0  0  0  0  0  0
    5.7815   -5.4362   24.4843 C   0  0  0  0  0  0  0  0  0  0  0  0
    5.0826   -4.8345   23.3013 C   0  0  0  0  0  0  0  0  0  0  0  0
    5.3951   -5.3222   21.9177 C   0  0  0  0  0  0  0  0  0  0  0  0
    6.4064   -6.4117   21.7169 C   0  0  0  0  0  0  0  0  0  0  0  0
    7.1053   -7.0135   22.8999 C   0  0  0  0  0  0  0  0  0  0  0  0
    6.7928   -6.5257   24.2835 C   0  0  0  0  0  0  0  0  0  0  0  0
    8.1568   -2.1683   25.3882 C   0  0  0  0  0  0  0  0  0  0  0  0
    9.1905   -1.8243   24.3571 C   0  0  0  0  0  0  0  0  0  0  0  0
    8.7670   -1.3141   23.0117 C   0  0  0  0  0  0  0  0  0  0  0  0
    9.8007   -0.9701   21.9806 N   0  0  0  0  0  0  0  0  0  0  0  0
   11.2579   -1.1364   22.2950 C   0  0  0  0  0  0  0  0  0  0  0  0
   11.6815   -1.6467   23.6405 C   0  0  0  0  0  0  0  0  0  0  0  0
   13.1387   -1.8130   23.9548 C   0  0  0  0  0  0  0  0  0  0  0  0
   13.5622   -2.3233   25.3002 C   0  0  0  0  0  0  0  0  0  0  0  0
   12.5285   -2.6672   26.3313 C   0  0  0  0  0  0  0  0  0  0  0  0
   11.0713   -2.5009   26.0170 C   0  0  0  0  0  0  0  0  0  0  0  0
   10.6478   -1.9907   24.6715 C   0  0  0  0  0  0  0  0  0  0  0  0
  1  2  2  0  0  0
  2 17  1  0  0  0
 17 18  1  0  0  0
 18 19  2  0  0  0
 19 20  1  0  0  0
 20 21  2  0  0  0
 21 22  1  0  0  0
 22 23  2  0  0  0
 23 24  1  0  0  0
 24 25  2  0  0  0
 25 26  1  0  0  0
 26 27  2  0  0  0
  2  3  1  0  0  0
  3  4  1  0  0  0
  4  5  2  0  0  0
  5  6  1  0  0  0
  6  7  2  0  0  0
  7  8  1  0  0  0
  8  9  2  0  0  0
  9 10  1  0  0  0
 10 11  1  0  0  0
 11 12  2  0  0  0
 12 13  1  0  0  0
 13 14  2  0  0  0
 14 15  1  0  0  0
 15 16  2  0  0  0
 27 18  1  0  0  0
 10  3  1  0  0  0
 16 11  1  0  0  0
 27 22  1  0  0  0
M  END
> <minimizedAffinity>
-7.46025

> <CNNscore>
0.5873245597

> <CNNaffinity>
6.0728764534

> <CNN_VS>
3.5667495728

> <CNNaffinity_variance>
0.0583171956

$$$$



 27 30  0  0  0  0  0  0  0  0999 V2000
    7.2456   -4.1848   24.0933 O   0  0  0  0  0  0  0  0  0  0  0  0
    7.1390   -3.5019   25.4247 C   0  0  0  0  0  0  0  0  0  0  0  0
    6.0971   -3.9399   26.4109 N   0  0  0  0  0  0  0  0  0  0  0  0
    6.1404   -3.1455   27.6825 C   0  0  0  0  0  0  0  0  0  0  0  0
    5.3609   -3.1517   28.9640 C   0  0  0  0  0  0  0  0  0  0  0  0
    4.2152   -3.9549   29.5048 C   0  0  0  0  0  0  0  0  0  0  0  0
    3.3746   -5.0846   28.9881 C   0  0  0  0  0  0  0  0  0  0  0  0
    3.3313   -5.8790   27.7165 C   0  0  0  0  0  0  0  0  0  0  0  0
    4.1109   -5.8729   26.4349 C   0  0  0  0  0  0  0  0  0  0  0  0
    5.2565   -5.0696   25.8941 C   0  0  0  0  0  0  0  0  0  0  0  0
    5.6549   -5.4963   24.5124 C   0  0  0  0  0  0  0  0  0  0  0  0
    5.0426   -4.8303   23.3159 C   0  0  0  0  0  0  0  0  0  0  0  0
    5.4411   -5.2570   21.9342 C   0  0  0  0  0  0  0  0  0  0  0  0
    6.4518   -6.3498   21.7489 C   0  0  0  0  0  0  0  0  0  0  0  0
    7.0641   -7.0158   22.9454 C   0  0  0  0  0  0  0  0  0  0  0  0
    6.6656   -6.5891   24.3271 C   0  0  0  0  0  0  0  0  0  0  0  0
    8.0742   -2.3811   25.7697 C   0  0  0  0  0  0  0  0  0  0  0  0
    9.5375   -2.6548   25.9531 C   0  0  0  0  0  0  0  0  0  0  0  0
    9.9853   -3.7652   26.8568 C   0  0  0  0  0  0  0  0  0  0  0  0
   11.4487   -4.0389   27.0402 N   0  0  0  0  0  0  0  0  0  0  0  0
   12.4642   -3.2023   26.3201 C   0  0  0  0  0  0  0  0  0  0  0  0
   12.0165   -2.0919   25.4164 C   0  0  0  0  0  0  0  0  0  0  0  0
   13.0320   -1.2553   24.6962 C   0  0  0  0  0  0  0  0  0  0  0  0
   12.5842   -0.1450   23.7926 C   0  0  0  0  0  0  0  0  0  0  0  0
   11.1209    0.1288   23.6091 C   0  0  0  0  0  0  0  0  0  0  0  0
   10.1053   -0.7078   24.3293 C   0  0  0  0  0  0  0  0  0  0  0  0
   10.5531   -1.8182   25.2329 C   0  0  0  0  0  0  0  0  0  0  0  0
  1  2  2  0  0  0
  2 17  1  0  0  0
 17 18  1  0  0  0
 18 19  2  0  0  0
 19 20  1  0  0  0
 20 21  2  0  0  0
 21 22  1  0  0  0
 22 23  2  0  0  0
 23 24  1  0  0  0
 24 25  2  0  0  0
 25 26  1  0  0  0
 26 27  2  0  0  0
  2  3  1  0  0  0
  3  4  1  0  0  0
  4  5  2  0  0  0
  5  6  1  0  0  0
  6  7  2  0  0  0
  7  8  1  0  0  0
  8  9  2  0  0  0
  9 10  1  0  0  0
 10 11  1  0  0  0
 11 12  2  0  0  0
 12 13  1  0  0  0
 13 14  2  0  0  0
 14 15  1  0  0  0
 15 16  2  0  0  0
 27 18  1  0  0  0
 10  3  1  0  0  0
 16 11  1  0  0  0
 27 22  1  0  0  0
M  END
> <minimizedAffinity>
-7.69212

> <CNNscore>
0.5848895907

> <CNNaffinity>
5.9240374565

> <CNN_VS>
3.4649078846

> <CNNaffinity_variance>
0.1517737210

$$$$



 27 30  0  0  0  0  0  0  0  0999 V2000
    7.4347    0.7840   22.2323 O   0  0  0  0  0  0  0  0  0  0  0  0
    6.4471   -0.3287   22.4238 C   0  0  0  0  0  0  0  0  0  0  0  0
    6.8800   -1.6135   23.0657 N   0  0  0  0  0  0  0  0  0  0  0  0
    5.7612   -2.6069   23.1732 C   0  0  0  0  0  0  0  0  0  0  0  0
    5.6292   -4.0016   23.7090 C   0  0  0  0  0  0  0  0  0  0  0  0
    6.5611   -4.9808   24.3593 C   0  0  0  0  0  0  0  0  0  0  0  0
    8.0111   -4.9707   24.7430 C   0  0  0  0  0  0  0  0  0  0  0  0
    9.1298   -3.9773   24.6355 C   0  0  0  0  0  0  0  0  0  0  0  0
    9.2620   -2.5824   24.0997 C   0  0  0  0  0  0  0  0  0  0  0  0
    8.3300   -1.6033   23.4494 C   0  0  0  0  0  0  0  0  0  0  0  0
    9.0070   -0.3109   23.1013 C   0  0  0  0  0  0  0  0  0  0  0  0
    9.3036    0.6935   24.1752 C   0  0  0  0  0  0  0  0  0  0  0  0
    9.9806    1.9859   23.8269 C   0  0  0  0  0  0  0  0  0  0  0  0
   10.3610    2.2740   22.4048 C   0  0  0  0  0  0  0  0  0  0  0  0
   10.0643    1.2696   21.3310 C   0  0  0  0  0  0  0  0  0  0  0  0
    9.3873   -0.0228   21.6792 C   0  0  0  0  0  0  0  0  0  0  0  0
    5.0267   -0.1567   21.9733 C   0  0  0  0  0  0  0  0  0  0  0  0
    4.7341    0.3776   20.6026 C   0  0  0  0  0  0  0  0  0  0  0  0
    5.5594   -0.0679   19.4320 C   0  0  0  0  0  0  0  0  0  0  0  0
    5.2668    0.4665   18.0613 N   0  0  0  0  0  0  0  0  0  0  0  0
    4.1488    1.4463   17.8612 C   0  0  0  0  0  0  0  0  0  0  0  0
    3.3234    1.8918   19.0318 C   0  0  0  0  0  0  0  0  0  0  0  0
    2.2055    2.8716   18.8317 C   0  0  0  0  0  0  0  0  0  0  0  0
    1.3802    3.3171   20.0023 C   0  0  0  0  0  0  0  0  0  0  0  0
    1.6728    2.7828   21.3730 C   0  0  0  0  0  0  0  0  0  0  0  0
    2.7908    1.8030   21.5731 C   0  0  0  0  0  0  0  0  0  0  0  0
    3.6161    1.3575   20.4025 C   0  0  0  0  0  0  0  0  0  0  0  0
  1  2  2  0  0  0
  2 17  1  0  0  0
 17 18  1  0  0  0
 18 19  2  0  0  0
 19 20  1  0  0  0
 20 21  2  0  0  0
 21 22  1  0  0  0
 22 23  2  0  0  0
 23 24  1  0  0  0
 24 25  2  0  0  0
 25 26  1  0  0  0
 26 27  2  0  0  0
  2  3  1  0  0  0
  3  4  1  0  0  0
  4  5  2  0  0  0
  5  6  1  0  0  0
  6  7  2  0  0  0
  7  8  1  0  0  0
  8  9  2  0  0  0
  9 10  1  0  0  0
 10 11  1  0  0  0
 11 12  2  0  0  0
 12 13  1  0  0  0
 13 14  2  0  0  0
 14 15  1  0  0  0
 15 16  2  0  0  0
 27 18  1  0  0  0
 10  3  1  0  0  0
 16 11  1  0  0  0
 27 22  1  0  0  0
M  END
> <minimizedAffinity>
-4.29838

> <CNNscore>
0.5303671360

> <CNNaffinity>
5.7803850174

> <CNN_VS>
3.0657262802

> <CNNaffinity_variance>
0.4571656585

$$$$



 27 30  0  0  0  0  0  0  0  0999 V2000
    6.7066   -1.4423   22.8911 O   0  0  0  0  0  0  0  0  0  0  0  0
    7.7967   -0.4624   22.5723 C   0  0  0  0  0  0  0  0  0  0  0  0
    9.1871   -0.6941   23.0852 N   0  0  0  0  0  0  0  0  0  0  0  0
   10.1404    0.3861   22.6678 C   0  0  0  0  0  0  0  0  0  0  0  0
   11.5994    0.6562   22.8874 C   0  0  0  0  0  0  0  0  0  0  0  0
   12.7095   -0.0421   23.6155 C   0  0  0  0  0  0  0  0  0  0  0  0
   12.8204   -1.2997   24.4255 C   0  0  0  0  0  0  0  0  0  0  0  0
   11.8671   -2.3800   24.8429 C   0  0  0  0  0  0  0  0  0  0  0  0
   10.4080   -2.6501   24.6232 C   0  0  0  0  0  0  0  0  0  0  0  0
    9.2979   -1.9518   23.8951 C   0  0  0  0  0  0  0  0  0  0  0  0
    7.9924   -2.6826   24.0022 C   0  0  0  0  0  0  0  0  0  0  0  0
    7.6166   -3.7023   22.9682 C   0  0  0  0  0  0  0  0  0  0  0  0
    6.3111   -4.4330   23.0754 C   0  0  0  0  0  0  0  0  0  0  0  0
    5.3813   -4.1442   24.2165 C   0  0  0  0  0  0  0  0  0  0  0  0
    5.7571   -3.1246   25.2505 C   0  0  0  0  0  0  0  0  0  0  0  0
    7.0626   -2.3938   25.1433 C   0  0  0  0  0  0  0  0  0  0  0  0
    7.4963    0.7492   21.7406 C   0  0  0  0  0  0  0  0  0  0  0  0
    6.6836    0.6156   20.4869 C   0  0  0  0  0  0  0  0  0  0  0  0
    7.1091   -0.3446   19.4160 C   0  0  0  0  0  0  0  0  0  0  0  0
    6.2965   -0.4782   18.1623 N   0  0  0  0  0  0  0  0  0  0  0  0
    5.0583    0.3485   17.9795 C   0  0  0  0  0  0  0  0  0  0  0  0
    4.6328    1.3089   19.0504 C   0  0  0  0  0  0  0  0  0  0  0  0
    3.3946    2.1356   18.8676 C   0  0  0  0  0  0  0  0  0  0  0  0
    2.9691    3.0959   19.9384 C   0  0  0  0  0  0  0  0  0  0  0  0
    3.7818    3.2294   21.1921 C   0  0  0  0  0  0  0  0  0  0  0  0
    5.0199    2.4027   21.3749 C   0  0  0  0  0  0  0  0  0  0  0  0
    5.4454    1.4424   20.3041 C   0  0  0  0  0  0  0  0  0  0  0  0
  1  2  2  0  0  0
  2 17  1  0  0  0
 17 18  1  0  0  0
 18 19  2  0  0  0
 19 20  1  0  0  0
 20 21  2  0  0  0
 21 22  1  0  0  0
 22 23  2  0  0  0
 23 24  1  0  0  0
 24 25  2  0  0  0
 25 26  1  0  0  0
 26 27  2  0  0  0
  2  3  1  0  0  0
  3  4  1  0  0  0
  4  5  2  0  0  0
  5  6  1  0  0  0
  6  7  2  0  0  0
  7  8  1  0  0  0
  8  9  2  0  0  0
  9 10  1  0  0  0
 10 11  1  0  0  0
 11 12  2  0  0  0
 12 13  1  0  0  0
 13 14  2  0  0  0
 14 15  1  0  0  0
 15 16  2  0  0  0
 27 18  1  0  0  0
 10  3  1  0  0  0
 16 11  1  0  0  0
 27 22  1  0  0  0
M  END
> <minimizedAffinity>
-7.97839

> <CNNscore>
0.4995314181

> <CNNaffinity>
6.0188608170

> <CNN_VS>
3.0066101551

> <CNNaffinity_variance>
0.1173873991

$$$$



 27 30  0  0  0  0  0  0  0  0999 V2000
    9.7732    0.5146   22.3732 O   0  0  0  0  0  0  0  0  0  0  0  0
    8.3478    0.4279   22.8323 C   0  0  0  0  0  0  0  0  0  0  0  0
    7.9645   -0.5431   23.9094 N   0  0  0  0  0  0  0  0  0  0  0  0
    6.5017   -0.4892   24.2368 C   0  0  0  0  0  0  0  0  0  0  0  0
    5.6024   -1.2101   25.1968 C   0  0  0  0  0  0  0  0  0  0  0  0
    5.7935   -2.2835   26.2271 C   0  0  0  0  0  0  0  0  0  0  0  0
    6.9629   -3.0805   26.7241 C   0  0  0  0  0  0  0  0  0  0  0  0
    8.4258   -3.1344   26.3966 C   0  0  0  0  0  0  0  0  0  0  0  0
    9.3251   -2.4135   25.4365 C   0  0  0  0  0  0  0  0  0  0  0  0
    9.1340   -1.3401   24.4063 C   0  0  0  0  0  0  0  0  0  0  0  0
   10.4123   -0.9792   23.7096 C   0  0  0  0  0  0  0  0  0  0  0  0
   11.2723    0.1268   24.2455 C   0  0  0  0  0  0  0  0  0  0  0  0
   12.5506    0.4876   23.5487 C   0  0  0  0  0  0  0  0  0  0  0  0
   12.9691   -0.2575   22.3160 C   0  0  0  0  0  0  0  0  0  0  0  0
   12.1092   -1.3636   21.7800 C   0  0  0  0  0  0  0  0  0  0  0  0
   10.8308   -1.7244   22.4769 C   0  0  0  0  0  0  0  0  0  0  0  0
    7.3057    1.3123   22.2143 C   0  0  0  0  0  0  0  0  0  0  0  0
    6.6884    0.9382   20.8993 C   0  0  0  0  0  0  0  0  0  0  0  0
    7.3319   -0.1092   20.0397 C   0  0  0  0  0  0  0  0  0  0  0  0
    6.7146   -0.4833   18.7248 N   0  0  0  0  0  0  0  0  0  0  0  0
    5.4539    0.1899   18.2695 C   0  0  0  0  0  0  0  0  0  0  0  0
    4.8104    1.2374   19.1291 C   0  0  0  0  0  0  0  0  0  0  0  0
    3.5497    1.9106   18.6738 C   0  0  0  0  0  0  0  0  0  0  0  0
    2.9063    2.9580   19.5334 C   0  0  0  0  0  0  0  0  0  0  0  0
    3.5236    3.3321   20.8483 C   0  0  0  0  0  0  0  0  0  0  0  0
    4.7843    2.6589   21.3036 C   0  0  0  0  0  0  0  0  0  0  0  0
    5.4277    1.6115   20.4440 C   0  0  0  0  0  0  0  0  0  0  0  0
  1  2  2  0  0  0
  2 17  1  0  0  0
 17 18  1  0  0  0
 18 19  2  0  0  0
 19 20  1  0  0  0
 20 21  2  0  0  0
 21 22  1  0  0  0
 22 23  2  0  0  0
 23 24  1  0  0  0
 24 25  2  0  0  0
 25 26  1  0  0  0
 26 27  2  0  0  0
  2  3  1  0  0  0
  3  4  1  0  0  0
  4  5  2  0  0  0
  5  6  1  0  0  0
  6  7  2  0  0  0
  7  8  1  0  0  0
  8  9  2  0  0  0
  9 10  1  0  0  0
 10 11  1  0  0  0
 11 12  2  0  0  0
 12 13  1  0  0  0
 13 14  2  0  0  0
 14 15  1  0  0  0
 15 16  2  0  0  0
 27 18  1  0  0  0
 10  3  1  0  0  0
 16 11  1  0  0  0
 27 22  1  0  0  0
M  END
> <minimizedAffinity>
-7.73117

> <CNNscore>
0.4455653131

> <CNNaffinity>
5.9605751038

> <CNN_VS>
2.6558256149

> <CNNaffinity_variance>
0.0407000892

$$$$



 27 30  0  0  0  0  0  0  0  0999 V2000
    7.4337   -1.0952   24.3763 O   0  0  0  0  0  0  0  0  0  0  0  0
    7.7404   -2.5112   23.9876 C   0  0  0  0  0  0  0  0  0  0  0  0
    6.8439   -3.6246   24.4421 N   0  0  0  0  0  0  0  0  0  0  0  0
    7.3061   -4.9673   23.9590 C   0  0  0  0  0  0  0  0  0  0  0  0
    6.8114   -6.3756   24.1067 C   0  0  0  0  0  0  0  0  0  0  0  0
    5.6495   -7.0247   24.7988 C   0  0  0  0  0  0  0  0  0  0  0  0
    4.5011   -6.5341   25.6297 C   0  0  0  0  0  0  0  0  0  0  0  0
    4.0389   -5.1914   26.1128 C   0  0  0  0  0  0  0  0  0  0  0  0
    4.5336   -3.7830   25.9651 C   0  0  0  0  0  0  0  0  0  0  0  0
    5.6955   -3.1341   25.2730 C   0  0  0  0  0  0  0  0  0  0  0  0
    5.7130   -1.6452   25.4545 C   0  0  0  0  0  0  0  0  0  0  0  0
    5.0034   -0.7614   24.4721 C   0  0  0  0  0  0  0  0  0  0  0  0
    5.0209    0.7275   24.6537 C   0  0  0  0  0  0  0  0  0  0  0  0
    5.7481    1.3326   25.8178 C   0  0  0  0  0  0  0  0  0  0  0  0
    6.4578    0.4487   26.8003 C   0  0  0  0  0  0  0  0  0  0  0  0
    6.4402   -1.0401   26.6186 C   0  0  0  0  0  0  0  0  0  0  0  0
    8.9435   -2.8137   23.1445 C   0  0  0  0  0  0  0  0  0  0  0  0
   10.1880   -1.9891   23.2901 C   0  0  0  0  0  0  0  0  0  0  0  0
   10.4593   -0.8655   22.3341 C   0  0  0  0  0  0  0  0  0  0  0  0
   11.7038   -0.0408   22.4797 N   0  0  0  0  0  0  0  0  0  0  0  0
   12.6769   -0.3397   23.5813 C   0  0  0  0  0  0  0  0  0  0  0  0
   12.4057   -1.4633   24.5374 C   0  0  0  0  0  0  0  0  0  0  0  0
   13.3788   -1.7622   25.6390 C   0  0  0  0  0  0  0  0  0  0  0  0
   13.1075   -2.8857   26.5950 C   0  0  0  0  0  0  0  0  0  0  0  0
   11.8631   -3.7104   26.4494 C   0  0  0  0  0  0  0  0  0  0  0  0
   10.8899   -3.4116   25.3478 C   0  0  0  0  0  0  0  0  0  0  0  0
   11.1612   -2.2880   24.3918 C   0  0  0  0  0  0  0  0  0  0  0  0
  1  2  2  0  0  0
  2 17  1  0  0  0
 17 18  1  0  0  0
 18 19  2  0  0  0
 19 20  1  0  0  0
 20 21  2  0  0  0
 21 22  1  0  0  0
 22 23  2  0  0  0
 23 24  1  0  0  0
 24 25  2  0  0  0
 25 26  1  0  0  0
 26 27  2  0  0  0
  2  3  1  0  0  0
  3  4  1  0  0  0
  4  5  2  0  0  0
  5  6  1  0  0  0
  6  7  2  0  0  0
  7  8  1  0  0  0
  8  9  2  0  0  0
  9 10  1  0  0  0
 10 11  1  0  0  0
 11 12  2  0  0  0
 12 13  1  0  0  0
 13 14  2  0  0  0
 14 15  1  0  0  0
 15 16  2  0  0  0
 27 18  1  0  0  0
 10  3  1  0  0  0
 16 11  1  0  0  0
 27 22  1  0  0  0
M  END
> <minimizedAffinity>
-7.16453

> <CNNscore>
0.4433600903

> <CNNaffinity>
5.9885644913

> <CNN_VS>
2.6550905704

> <CNNaffinity_variance>
0.0323537514

$$$$



 27 30  0  0  0  0  0  0  0  0999 V2000
    7.1527   -4.2725   24.9859 O   0  0  0  0  0  0  0  0  0  0  0  0
    7.4595   -2.8127   24.8271 C   0  0  0  0  0  0  0  0  0  0  0  0
    6.9178   -2.0562   23.6505 N   0  0  0  0  0  0  0  0  0  0  0  0
    7.3267   -0.6131   23.6584 C   0  0  0  0  0  0  0  0  0  0  0  0
    7.0815    0.5637   22.7612 C   0  0  0  0  0  0  0  0  0  0  0  0
    6.3259    0.7848   21.4844 C   0  0  0  0  0  0  0  0  0  0  0  0
    5.5024   -0.0793   20.5761 C   0  0  0  0  0  0  0  0  0  0  0  0
    5.0935   -1.5225   20.5682 C   0  0  0  0  0  0  0  0  0  0  0  0
    5.3387   -2.6994   21.4655 C   0  0  0  0  0  0  0  0  0  0  0  0
    6.0944   -2.9204   22.7422 C   0  0  0  0  0  0  0  0  0  0  0  0
    6.0057   -4.3383   23.2235 C   0  0  0  0  0  0  0  0  0  0  0  0
    4.9785   -4.7199   24.2478 C   0  0  0  0  0  0  0  0  0  0  0  0
    4.8900   -6.1378   24.7290 C   0  0  0  0  0  0  0  0  0  0  0  0
    5.8286   -7.1742   24.1859 C   0  0  0  0  0  0  0  0  0  0  0  0
    6.8558   -6.7926   23.1616 C   0  0  0  0  0  0  0  0  0  0  0  0
    6.9443   -5.3747   22.6804 C   0  0  0  0  0  0  0  0  0  0  0  0
    8.3079   -2.1096   25.8448 C   0  0  0  0  0  0  0  0  0  0  0  0
    9.7492   -2.4902   26.0116 C   0  0  0  0  0  0  0  0  0  0  0  0
   10.1270   -3.6118   26.9330 C   0  0  0  0  0  0  0  0  0  0  0  0
   11.5683   -3.9924   27.0998 N   0  0  0  0  0  0  0  0  0  0  0  0
   12.6318   -3.2513   26.3452 C   0  0  0  0  0  0  0  0  0  0  0  0
   12.2541   -2.1296   25.4237 C   0  0  0  0  0  0  0  0  0  0  0  0
   13.3177   -1.3885   24.6690 C   0  0  0  0  0  0  0  0  0  0  0  0
   12.9399   -0.2668   23.7476 C   0  0  0  0  0  0  0  0  0  0  0  0
   11.4986    0.1138   23.5808 C   0  0  0  0  0  0  0  0  0  0  0  0
   10.4351   -0.6273   24.3354 C   0  0  0  0  0  0  0  0  0  0  0  0
   10.8128   -1.7490   25.2569 C   0  0  0  0  0  0  0  0  0  0  0  0
  1  2  2  0  0  0
  2 17  1  0  0  0
 17 18  1  0  0  0
 18 19  2  0  0  0
 19 20  1  0  0  0
 20 21  2  0  0  0
 21 22  1  0  0  0
 22 23  2  0  0  0
 23 24  1  0  0  0
 24 25  2  0  0  0
 25 26  1  0  0  0
 26 27  2  0  0  0
  2  3  1  0  0  0
  3  4  1  0  0  0
  4  5  2  0  0  0
  5  6  1  0  0  0
  6  7  2  0  0  0
  7  8  1  0  0  0
  8  9  2  0  0  0
  9 10  1  0  0  0
 10 11  1  0  0  0
 11 12  2  0  0  0
 12 13  1  0  0  0
 13 14  2  0  0  0
 14 15  1  0  0  0
 15 16  2  0  0  0
 27 18  1  0  0  0
 10  3  1  0  0  0
 16 11  1  0  0  0
 27 22  1  0  0  0
M  END
> <minimizedAffinity>
-7.30117

> <CNNscore>
0.4291892350

> <CNNaffinity>
6.0375790596

> <CNN_VS>
2.5912640095

> <CNNaffinity_variance>
0.0439758934

$$$$



 27 30  0  0  0  0  0  0  0  0999 V2000
    6.6333   -0.2799   23.6198 O   0  0  0  0  0  0  0  0  0  0  0  0
    7.8992    0.2258   22.9936 C   0  0  0  0  0  0  0  0  0  0  0  0
    9.2288   -0.1846   23.5537 N   0  0  0  0  0  0  0  0  0  0  0  0
   10.3788    0.4166   22.8014 C   0  0  0  0  0  0  0  0  0  0  0  0
   11.8728    0.3516   22.9184 C   0  0  0  0  0  0  0  0  0  0  0  0
   12.8357   -0.3416   23.8363 C   0  0  0  0  0  0  0  0  0  0  0  0
   12.7033   -1.2569   25.0173 C   0  0  0  0  0  0  0  0  0  0  0  0
   11.5533   -1.8581   25.7696 C   0  0  0  0  0  0  0  0  0  0  0  0
   10.0592   -1.7931   25.6526 C   0  0  0  0  0  0  0  0  0  0  0  0
    9.0964   -1.0999   24.7347 C   0  0  0  0  0  0  0  0  0  0  0  0
    7.6655   -1.3901   25.0785 C   0  0  0  0  0  0  0  0  0  0  0  0
    6.9310   -0.5047   26.0411 C   0  0  0  0  0  0  0  0  0  0  0  0
    5.5001   -0.7950   26.3849 C   0  0  0  0  0  0  0  0  0  0  0  0
    4.8036   -1.9707   25.7662 C   0  0  0  0  0  0  0  0  0  0  0  0
    5.5382   -2.8561   24.8036 C   0  0  0  0  0  0  0  0  0  0  0  0
    6.9691   -2.5657   24.4598 C   0  0  0  0  0  0  0  0  0  0  0  0
    7.8354    1.1417   21.8075 C   0  0  0  0  0  0  0  0  0  0  0  0
    6.9604    0.7960   20.6392 C   0  0  0  0  0  0  0  0  0  0  0  0
    7.3535   -0.3141   19.7103 C   0  0  0  0  0  0  0  0  0  0  0  0
    6.4785   -0.6598   18.5420 N   0  0  0  0  0  0  0  0  0  0  0  0
    5.2104    0.1047   18.3026 C   0  0  0  0  0  0  0  0  0  0  0  0
    4.8172    1.2150   19.2315 C   0  0  0  0  0  0  0  0  0  0  0  0
    3.5491    1.9795   18.9922 C   0  0  0  0  0  0  0  0  0  0  0  0
    3.1560    3.0897   19.9211 C   0  0  0  0  0  0  0  0  0  0  0  0
    4.0310    3.4353   21.0894 C   0  0  0  0  0  0  0  0  0  0  0  0
    5.2991    2.6708   21.3288 C   0  0  0  0  0  0  0  0  0  0  0  0
    5.6922    1.5606   20.3998 C   0  0  0  0  0  0  0  0  0  0  0  0
  1  2  2  0  0  0
  2 17  1  0  0  0
 17 18  1  0  0  0
 18 19  2  0  0  0
 19 20  1  0  0  0
 20 21  2  0  0  0
 21 22  1  0  0  0
 22 23  2  0  0  0
 23 24  1  0  0  0
 24 25  2  0  0  0
 25 26  1  0  0  0
 26 27  2  0  0  0
  2  3  1  0  0  0
  3  4  1  0  0  0
  4  5  2  0  0  0
  5  6  1  0  0  0
  6  7  2  0  0  0
  7  8  1  0  0  0
  8  9  2  0  0  0
  9 10  1  0  0  0
 10 11  1  0  0  0
 11 12  2  0  0  0
 12 13  1  0  0  0
 13 14  2  0  0  0
 14 15  1  0  0  0
 15 16  2  0  0  0
 27 18  1  0  0  0
 10  3  1  0  0  0
 16 11  1  0  0  0
 27 22  1  0  0  0
M  END
> <minimizedAffinity>
-7.80352

> <CNNscore>
0.4063614011

> <CNNaffinity>
5.8765220642

> <CNN_VS>
2.3879916668

> <CNNaffinity_variance>
0.0259025581

$$$$



 27 30  0  0  0  0  0  0  0  0999 V2000
    5.9122   -2.6828   22.9432 O   0  0  0  0  0  0  0  0  0  0  0  0
    6.9576   -1.6410   23.2113 C   0  0  0  0  0  0  0  0  0  0  0  0
    8.1869   -1.9962   23.9940 N   0  0  0  0  0  0  0  0  0  0  0  0
    9.1168   -0.8313   24.1621 C   0  0  0  0  0  0  0  0  0  0  0  0
   10.4429   -0.6207   24.8307 C   0  0  0  0  0  0  0  0  0  0  0  0
   11.3883   -1.4876   25.6084 C   0  0  0  0  0  0  0  0  0  0  0  0
   11.3992   -2.9243   26.0394 C   0  0  0  0  0  0  0  0  0  0  0  0
   10.4693   -4.0891   25.8713 C   0  0  0  0  0  0  0  0  0  0  0  0
    9.1431   -4.2999   25.2026 C   0  0  0  0  0  0  0  0  0  0  0  0
    8.1978   -3.4329   24.4250 C   0  0  0  0  0  0  0  0  0  0  0  0
    6.9769   -4.1774   23.9722 C   0  0  0  0  0  0  0  0  0  0  0  0
    5.7802   -4.2733   24.8716 C   0  0  0  0  0  0  0  0  0  0  0  0
    4.5594   -5.0178   24.4187 C   0  0  0  0  0  0  0  0  0  0  0  0
    4.5351   -5.6664   23.0664 C   0  0  0  0  0  0  0  0  0  0  0  0
    5.7317   -5.5705   22.1670 C   0  0  0  0  0  0  0  0  0  0  0  0
    6.9525   -4.8260   22.6199 C   0  0  0  0  0  0  0  0  0  0  0  0
    6.7737   -0.2442   22.6967 C   0  0  0  0  0  0  0  0  0  0  0  0
    6.4483   -0.0144   21.2505 C   0  0  0  0  0  0  0  0  0  0  0  0
    7.3966   -0.4792   20.1854 C   0  0  0  0  0  0  0  0  0  0  0  0
    7.0713   -0.2494   18.7392 N   0  0  0  0  0  0  0  0  0  0  0  0
    5.7976    0.4452   18.3582 C   0  0  0  0  0  0  0  0  0  0  0  0
    4.8492    0.9100   19.4234 C   0  0  0  0  0  0  0  0  0  0  0  0
    3.5755    1.6046   19.0424 C   0  0  0  0  0  0  0  0  0  0  0  0
    2.6272    2.0694   20.1075 C   0  0  0  0  0  0  0  0  0  0  0  0
    2.9525    1.8397   21.5537 C   0  0  0  0  0  0  0  0  0  0  0  0
    4.2262    1.1451   21.9347 C   0  0  0  0  0  0  0  0  0  0  0  0
    5.1745    0.6802   20.8695 C   0  0  0  0  0  0  0  0  0  0  0  0
  1  2  2  0  0  0
  2 17  1  0  0  0
 17 18  1  0  0  0
 18 19  2  0  0  0
 19 20  1  0  0  0
 20 21  2  0  0  0
 21 22  1  0  0  0
 22 23  2  0  0  0
 23 24  1  0  0  0
 24 25  2  0  0  0
 25 26  1  0  0  0
 26 27  2  0  0  0
  2  3  1  0  0  0
  3  4  1  0  0  0
  4  5  2  0  0  0
  5  6  1  0  0  0
  6  7  2  0  0  0
  7  8  1  0  0  0
  8  9  2  0  0  0
  9 10  1  0  0  0
 10 11  1  0  0  0
 11 12  2  0  0  0
 12 13  1  0  0  0
 13 14  2  0  0  0
 14 15  1  0  0  0
 15 16  2  0  0  0
 27 18  1  0  0  0
 10  3  1  0  0  0
 16 11  1  0  0  0
 27 22  1  0  0  0
M  END
> <minimizedAffinity>
-7.53087

> <CNNscore>
0.3894001245

> <CNNaffinity>
5.7304601669

> <CNN_VS>
2.2314419746

> <CNNaffinity_variance>
0.0641011447

$$$$
