


 31 33  0  0  0  0  0  0  0  0999 V2000
    6.8473   -3.8759   25.8826 N   0  0  0  0  0  0  0  0  0  0  0  0
    8.2993   -3.6801   25.5610 C   0  0  0  0  0  0  0  0  0  0  0  0
    8.9630   -4.5463   24.5318 O   0  0  0  0  0  0  0  0  0  0  0  0
    9.0875   -2.6181   26.2687 N   0  0  0  0  0  0  0  0  0  0  0  0
    8.6519   -2.0496   26.9442 H   0  0  0  0  0  0  0  0  0  0  0  0
   10.5395   -2.4223   25.9472 C   0  0  0  0  0  0  0  0  0  0  0  0
   11.5760   -3.2861   26.6026 C   0  0  0  0  0  0  0  0  0  0  0  0
   13.0279   -3.0903   26.2810 N   0  0  0  0  0  0  0  0  0  0  0  0
   13.4435   -2.0307   25.3041 C   0  0  0  0  0  0  0  0  0  0  0  0
   12.4070   -1.1668   24.6486 C   0  0  0  0  0  0  0  0  0  0  0  0
   12.8226   -0.1072   23.6717 C   0  0  0  0  0  0  0  0  0  0  0  0
   11.7862    0.7566   23.0162 C   0  0  0  0  0  0  0  0  0  0  0  0
   10.3342    0.5608   23.3378 C   0  0  0  0  0  0  0  0  0  0  0  0
    9.9186   -0.4988   24.3147 C   0  0  0  0  0  0  0  0  0  0  0  0
   10.9551   -1.3626   24.9701 C   0  0  0  0  0  0  0  0  0  0  0  0
    6.1835   -3.0098   26.9117 C   0  0  0  0  0  0  0  0  0  0  0  0
    6.2269   -3.3984   28.3599 C   0  0  0  0  0  0  0  0  0  0  0  0
    5.5632   -2.5322   29.3891 C   0  0  0  0  0  0  0  0  0  0  0  0
    4.8561   -1.2775   28.9702 C   0  0  0  0  0  0  0  0  0  0  0  0
    4.8127   -0.8888   27.5221 C   0  0  0  0  0  0  0  0  0  0  0  0
    4.1056    0.3660   27.1031 Cl  0  0  0  0  0  0  0  0  0  0  0  0
    5.4764   -1.7550   26.4928 C   0  0  0  0  0  0  0  0  0  0  0  0
    6.0590   -4.9379   25.1749 C   0  0  0  0  0  0  0  0  0  0  0  0
    6.6592   -6.4763   23.1691 C   0  0  0  0  0  0  0  0  0  0  0  0
    6.2297   -5.1401   23.6984 C   0  0  0  0  0  0  0  0  0  0  0  0
    5.9710   -4.0061   22.7513 C   0  0  0  0  0  0  0  0  0  0  0  0
    4.9800   -4.1706   21.6374 O   0  0  0  0  0  0  0  0  0  0  0  0
    6.7033   -2.7077   22.9180 N   0  0  0  0  0  0  0  0  0  0  0  0
    7.3537   -2.5997   23.6492 H   0  0  0  0  0  0  0  0  0  0  0  0
    6.4446   -1.5737   21.9709 C   0  0  0  0  0  0  0  0  0  0  0  0
    5.3395   -0.5991   22.2519 C   0  0  0  0  0  0  0  0  0  0  0  0
 24 25  2  0  0  0
 25 23  1  0  0  0
 23  1  1  0  0  0
  1  2  1  0  0  0
  2  3  2  0  0  0
  2  4  1  0  0  0
  4  6  1  0  0  0
  6  7  2  0  0  0
  7  8  1  0  0  0
  8  9  2  0  0  0
  9 10  1  0  0  0
 10 11  2  0  0  0
 11 12  1  0  0  0
 12 13  2  0  0  0
 13 14  1  0  0  0
 14 15  2  0  0  0
  1 16  1  0  0  0
 16 17  2  0  0  0
 17 18  1  0  0  0
 18 19  2  0  0  0
 19 20  1  0  0  0
 20 21  1  0  0  0
 20 22  2  0  0  0
 25 26  1  0  0  0
 26 27  2  0  0  0
 26 28  1  0  0  0
 28 30  1  0  0  0
 30 31  1  0  0  0
 15  6  1  0  0  0
 22 16  1  0  0  0
 15 10  1  0  0  0
  4  5  1  0  0  0
 28 29  1  0  0  0
M  END
> <minimizedAffinity>
-6.95737

> <CNNscore>
0.6778422594

> <CNNaffinity>
6.3459877968

> <CNN_VS>
4.3015785217

> <CNNaffinity_variance>
0.0586432405

$$$$



 31 33  0  0  0  0  0  0  0  0999 V2000
    6.6639   -2.5955   22.4245 N   0  0  0  0  0  0  0  0  0  0  0  0
    8.0467   -2.0148   22.4527 C   0  0  0  0  0  0  0  0  0  0  0  0
    8.3672   -0.8008   21.6319 O   0  0  0  0  0  0  0  0  0  0  0  0
    9.1089   -2.6480   23.3016 N   0  0  0  0  0  0  0  0  0  0  0  0
    8.8985   -3.4448   23.8403 H   0  0  0  0  0  0  0  0  0  0  0  0
   10.4916   -2.0673   23.3298 C   0  0  0  0  0  0  0  0  0  0  0  0
   10.9524   -1.1731   22.2172 C   0  0  0  0  0  0  0  0  0  0  0  0
   12.3351   -0.5924   22.2454 N   0  0  0  0  0  0  0  0  0  0  0  0
   13.2571   -0.9060   23.3862 C   0  0  0  0  0  0  0  0  0  0  0  0
   12.7964   -1.8003   24.4989 C   0  0  0  0  0  0  0  0  0  0  0  0
   13.7184   -2.1138   25.6398 C   0  0  0  0  0  0  0  0  0  0  0  0
   13.2577   -3.0080   26.7524 C   0  0  0  0  0  0  0  0  0  0  0  0
   11.8749   -3.5887   26.7242 C   0  0  0  0  0  0  0  0  0  0  0  0
   10.9529   -3.2752   25.5834 C   0  0  0  0  0  0  0  0  0  0  0  0
   11.4137   -2.3809   24.4707 C   0  0  0  0  0  0  0  0  0  0  0  0
    6.3434   -3.8094   23.2452 C   0  0  0  0  0  0  0  0  0  0  0  0
    5.4110   -3.6990   24.4152 C   0  0  0  0  0  0  0  0  0  0  0  0
    5.0905   -4.9129   25.2359 C   0  0  0  0  0  0  0  0  0  0  0  0
    5.7022   -6.2373   24.8867 C   0  0  0  0  0  0  0  0  0  0  0  0
    6.6345   -6.3477   23.7169 C   0  0  0  0  0  0  0  0  0  0  0  0
    7.2462   -7.6720   23.3678 Cl  0  0  0  0  0  0  0  0  0  0  0  0
    6.9551   -5.1337   22.8961 C   0  0  0  0  0  0  0  0  0  0  0  0
    5.6017   -1.9622   21.5756 C   0  0  0  0  0  0  0  0  0  0  0  0
    4.8862    0.0038   23.1161 C   0  0  0  0  0  0  0  0  0  0  0  0
    5.2604   -0.5130   21.7585 C   0  0  0  0  0  0  0  0  0  0  0  0
    5.2932    0.4193   20.5839 C   0  0  0  0  0  0  0  0  0  0  0  0
    6.5951    1.0130   20.1339 O   0  0  0  0  0  0  0  0  0  0  0  0
    4.0242    0.7579   19.8594 N   0  0  0  0  0  0  0  0  0  0  0  0
    3.1698    0.3682   20.1548 H   0  0  0  0  0  0  0  0  0  0  0  0
    4.0571    1.6902   18.6848 C   0  0  0  0  0  0  0  0  0  0  0  0
    4.7785    1.2923   17.4313 C   0  0  0  0  0  0  0  0  0  0  0  0
 24 25  2  0  0  0
 25 23  1  0  0  0
 23  1  1  0  0  0
  1  2  1  0  0  0
  2  3  2  0  0  0
  2  4  1  0  0  0
  4  6  1  0  0  0
  6  7  2  0  0  0
  7  8  1  0  0  0
  8  9  2  0  0  0
  9 10  1  0  0  0
 10 11  2  0  0  0
 11 12  1  0  0  0
 12 13  2  0  0  0
 13 14  1  0  0  0
 14 15  2  0  0  0
  1 16  1  0  0  0
 16 17  2  0  0  0
 17 18  1  0  0  0
 18 19  2  0  0  0
 19 20  1  0  0  0
 20 21  1  0  0  0
 20 22  2  0  0  0
 25 26  1  0  0  0
 26 27  2  0  0  0
 26 28  1  0  0  0
 28 30  1  0  0  0
 30 31  1  0  0  0
 15  6  1  0  0  0
 22 16  1  0  0  0
 15 10  1  0  0  0
  4  5  1  0  0  0
 28 29  1  0  0  0
M  END
> <minimizedAffinity>
-8.16176

> <CNNscore>
0.6742247343

> <CNNaffinity>
6.4600691795

> <CNN_VS>
4.3555383682

> <CNNaffinity_variance>
0.0068968101

$$$$



 31 33  0  0  0  0  0  0  0  0999 V2000
    8.5209   -1.0277   23.3221 N   0  0  0  0  0  0  0  0  0  0  0  0
    7.4561   -0.7568   22.3009 C   0  0  0  0  0  0  0  0  0  0  0  0
    6.0602   -1.2599   22.5213 O   0  0  0  0  0  0  0  0  0  0  0  0
    7.7871    0.0172   21.0594 N   0  0  0  0  0  0  0  0  0  0  0  0
    8.7032    0.3474   20.9148 H   0  0  0  0  0  0  0  0  0  0  0  0
    6.7222    0.2881   20.0383 C   0  0  0  0  0  0  0  0  0  0  0  0
    6.6762   -0.5141   18.7717 C   0  0  0  0  0  0  0  0  0  0  0  0
    5.6114   -0.2432   17.7506 N   0  0  0  0  0  0  0  0  0  0  0  0
    4.5925    0.8299   17.9960 C   0  0  0  0  0  0  0  0  0  0  0  0
    4.6385    1.6322   19.2626 C   0  0  0  0  0  0  0  0  0  0  0  0
    3.6197    2.7054   19.5081 C   0  0  0  0  0  0  0  0  0  0  0  0
    3.6657    3.5076   20.7746 C   0  0  0  0  0  0  0  0  0  0  0  0
    4.7305    3.2367   21.7958 C   0  0  0  0  0  0  0  0  0  0  0  0
    5.7493    2.1636   21.5504 C   0  0  0  0  0  0  0  0  0  0  0  0
    5.7033    1.3613   20.2838 C   0  0  0  0  0  0  0  0  0  0  0  0
    9.9167   -0.5246   23.1017 C   0  0  0  0  0  0  0  0  0  0  0  0
   10.3471    0.7808   23.7025 C   0  0  0  0  0  0  0  0  0  0  0  0
   11.7429    1.2839   23.4821 C   0  0  0  0  0  0  0  0  0  0  0  0
   12.7084    0.4816   22.6610 C   0  0  0  0  0  0  0  0  0  0  0  0
   12.2781   -0.8237   22.0603 C   0  0  0  0  0  0  0  0  0  0  0  0
   13.2436   -1.6259   21.2392 Cl  0  0  0  0  0  0  0  0  0  0  0  0
   10.8822   -1.3268   22.2806 C   0  0  0  0  0  0  0  0  0  0  0  0
    8.1899   -1.8017   24.5636 C   0  0  0  0  0  0  0  0  0  0  0  0
    7.7553   -4.3464   24.2702 C   0  0  0  0  0  0  0  0  0  0  0  0
    8.6485   -3.2228   24.7061 C   0  0  0  0  0  0  0  0  0  0  0  0
   10.0002   -3.5203   25.2843 C   0  0  0  0  0  0  0  0  0  0  0  0
   10.3962   -4.9376   25.5748 O   0  0  0  0  0  0  0  0  0  0  0  0
   10.9558   -2.4005   25.5721 N   0  0  0  0  0  0  0  0  0  0  0  0
   10.6959   -1.4703   25.3814 H   0  0  0  0  0  0  0  0  0  0  0  0
   12.3075   -2.6980   26.1503 C   0  0  0  0  0  0  0  0  0  0  0  0
   13.4937   -1.8729   25.7476 C   0  0  0  0  0  0  0  0  0  0  0  0
 24 25  2  0  0  0
 25 23  1  0  0  0
 23  1  1  0  0  0
  1  2  1  0  0  0
  2  3  2  0  0  0
  2  4  1  0  0  0
  4  6  1  0  0  0
  6  7  2  0  0  0
  7  8  1  0  0  0
  8  9  2  0  0  0
  9 10  1  0  0  0
 10 11  2  0  0  0
 11 12  1  0  0  0
 12 13  2  0  0  0
 13 14  1  0  0  0
 14 15  2  0  0  0
  1 16  1  0  0  0
 16 17  2  0  0  0
 17 18  1  0  0  0
 18 19  2  0  0  0
 19 20  1  0  0  0
 20 21  1  0  0  0
 20 22  2  0  0  0
 25 26  1  0  0  0
 26 27  2  0  0  0
 26 28  1  0  0  0
 28 30  1  0  0  0
 30 31  1  0  0  0
 15  6  1  0  0  0
 22 16  1  0  0  0
 15 10  1  0  0  0
  4  5  1  0  0  0
 28 29  1  0  0  0
M  END
> <minimizedAffinity>
-8.39662

> <CNNscore>
0.6491420269

> <CNNaffinity>
6.6664314270

> <CNN_VS>
4.3274607658

> <CNNaffinity_variance>
0.0232632868

$$$$



 31 33  0  0  0  0  0  0  0  0999 V2000
    8.2593   -1.0157   23.2911 N   0  0  0  0  0  0  0  0  0  0  0  0
    7.2369   -0.7575   22.2243 C   0  0  0  0  0  0  0  0  0  0  0  0
    5.8534   -1.3214   22.3592 O   0  0  0  0  0  0  0  0  0  0  0  0
    7.5979    0.0646   21.0228 N   0  0  0  0  0  0  0  0  0  0  0  0
    8.5059    0.4347   20.9342 H   0  0  0  0  0  0  0  0  0  0  0  0
    6.5755    0.3228   19.9560 C   0  0  0  0  0  0  0  0  0  0  0  0
    6.6073   -0.4654   18.6802 C   0  0  0  0  0  0  0  0  0  0  0  0
    5.5848   -0.2072   17.6134 N   0  0  0  0  0  0  0  0  0  0  0  0
    4.5306    0.8391   17.8224 C   0  0  0  0  0  0  0  0  0  0  0  0
    4.4988    1.6274   19.0983 C   0  0  0  0  0  0  0  0  0  0  0  0
    3.4446    2.6737   19.3073 C   0  0  0  0  0  0  0  0  0  0  0  0
    3.4128    3.4619   20.5831 C   0  0  0  0  0  0  0  0  0  0  0  0
    4.4352    3.2037   21.6499 C   0  0  0  0  0  0  0  0  0  0  0  0
    5.4894    2.1574   21.4409 C   0  0  0  0  0  0  0  0  0  0  0  0
    5.5212    1.3692   20.1651 C   0  0  0  0  0  0  0  0  0  0  0  0
    9.6427   -0.4518   23.1563 C   0  0  0  0  0  0  0  0  0  0  0  0
    9.9302    0.9475   23.6141 C   0  0  0  0  0  0  0  0  0  0  0  0
   11.3136    1.5113   23.4792 C   0  0  0  0  0  0  0  0  0  0  0  0
   12.4096    0.6760   22.8867 C   0  0  0  0  0  0  0  0  0  0  0  0
   12.1221   -0.7232   22.4289 C   0  0  0  0  0  0  0  0  0  0  0  0
   13.2181   -1.5585   21.8364 Cl  0  0  0  0  0  0  0  0  0  0  0  0
   10.7387   -1.2871   22.5637 C   0  0  0  0  0  0  0  0  0  0  0  0
    7.8983   -1.8378   24.4928 C   0  0  0  0  0  0  0  0  0  0  0  0
    9.5805   -3.6928   25.1850 C   0  0  0  0  0  0  0  0  0  0  0  0
    8.2821   -3.2866   24.5531 C   0  0  0  0  0  0  0  0  0  0  0  0
    7.3676   -4.3292   23.9817 C   0  0  0  0  0  0  0  0  0  0  0  0
    7.1633   -4.4159   22.4982 O   0  0  0  0  0  0  0  0  0  0  0  0
    6.6572   -5.2850   24.8937 N   0  0  0  0  0  0  0  0  0  0  0  0
    6.7913   -5.2281   25.8674 H   0  0  0  0  0  0  0  0  0  0  0  0
    5.7427   -6.3276   24.3223 C   0  0  0  0  0  0  0  0  0  0  0  0
    4.3712   -5.9450   23.8505 C   0  0  0  0  0  0  0  0  0  0  0  0
 24 25  2  0  0  0
 25 23  1  0  0  0
 23  1  1  0  0  0
  1  2  1  0  0  0
  2  3  2  0  0  0
  2  4  1  0  0  0
  4  6  1  0  0  0
  6  7  2  0  0  0
  7  8  1  0  0  0
  8  9  2  0  0  0
  9 10  1  0  0  0
 10 11  2  0  0  0
 11 12  1  0  0  0
 12 13  2  0  0  0
 13 14  1  0  0  0
 14 15  2  0  0  0
  1 16  1  0  0  0
 16 17  2  0  0  0
 17 18  1  0  0  0
 18 19  2  0  0  0
 19 20  1  0  0  0
 20 21  1  0  0  0
 20 22  2  0  0  0
 25 26  1  0  0  0
 26 27  2  0  0  0
 26 28  1  0  0  0
 28 30  1  0  0  0
 30 31  1  0  0  0
 15  6  1  0  0  0
 22 16  1  0  0  0
 15 10  1  0  0  0
  4  5  1  0  0  0
 28 29  1  0  0  0
M  END
> <minimizedAffinity>
-7.44135

> <CNNscore>
0.5674920082

> <CNNaffinity>
6.3936386108

> <CNN_VS>
3.6283388138

> <CNNaffinity_variance>
0.0120456060

$$$$



 31 33  0  0  0  0  0  0  0  0999 V2000
    8.4242   -0.8011   23.4005 N   0  0  0  0  0  0  0  0  0  0  0  0
    7.3796   -0.5906   22.3449 C   0  0  0  0  0  0  0  0  0  0  0  0
    5.9765   -1.0702   22.5720 O   0  0  0  0  0  0  0  0  0  0  0  0
    7.7379    0.0994   21.0621 N   0  0  0  0  0  0  0  0  0  0  0  0
    8.6588    0.4141   20.9130 H   0  0  0  0  0  0  0  0  0  0  0  0
    6.6933    0.3098   20.0065 C   0  0  0  0  0  0  0  0  0  0  0  0
    6.7075   -0.5249   18.7603 C   0  0  0  0  0  0  0  0  0  0  0  0
    5.6628   -0.3145   17.7046 N   0  0  0  0  0  0  0  0  0  0  0  0
    4.6040    0.7307   17.8951 C   0  0  0  0  0  0  0  0  0  0  0  0
    4.5897    1.5655   19.1414 C   0  0  0  0  0  0  0  0  0  0  0  0
    3.5308    2.6107   19.3319 C   0  0  0  0  0  0  0  0  0  0  0  0
    3.5166    3.4454   20.5780 C   0  0  0  0  0  0  0  0  0  0  0  0
    4.5613    3.2350   21.6337 C   0  0  0  0  0  0  0  0  0  0  0  0
    5.6202    2.1898   21.4432 C   0  0  0  0  0  0  0  0  0  0  0  0
    5.6344    1.3551   20.1970 C   0  0  0  0  0  0  0  0  0  0  0  0
    9.8272   -0.3216   23.1734 C   0  0  0  0  0  0  0  0  0  0  0  0
   10.2538    1.0209   23.6892 C   0  0  0  0  0  0  0  0  0  0  0  0
   11.6568    1.5004   23.4621 C   0  0  0  0  0  0  0  0  0  0  0  0
   12.6333    0.6375   22.7193 C   0  0  0  0  0  0  0  0  0  0  0  0
   12.2068   -0.7049   22.2035 C   0  0  0  0  0  0  0  0  0  0  0  0
   13.1833   -1.5677   21.4606 Cl  0  0  0  0  0  0  0  0  0  0  0  0
   10.8037   -1.1844   22.4305 C   0  0  0  0  0  0  0  0  0  0  0  0
    8.0658   -1.4911   24.6833 C   0  0  0  0  0  0  0  0  0  0  0  0
   10.1782   -2.2894   25.9681 C   0  0  0  0  0  0  0  0  0  0  0  0
    8.9272   -2.6040   25.2024 C   0  0  0  0  0  0  0  0  0  0  0  0
    8.5378   -4.0313   24.9558 C   0  0  0  0  0  0  0  0  0  0  0  0
    9.5575   -5.1222   25.0973 O   0  0  0  0  0  0  0  0  0  0  0  0
    7.1285   -4.3679   24.5676 N   0  0  0  0  0  0  0  0  0  0  0  0
    6.4592   -3.6519   24.4747 H   0  0  0  0  0  0  0  0  0  0  0  0
    6.7390   -5.7953   24.3210 C   0  0  0  0  0  0  0  0  0  0  0  0
    6.9572   -6.4096   22.9700 C   0  0  0  0  0  0  0  0  0  0  0  0
 24 25  2  0  0  0
 25 23  1  0  0  0
 23  1  1  0  0  0
  1  2  1  0  0  0
  2  3  2  0  0  0
  2  4  1  0  0  0
  4  6  1  0  0  0
  6  7  2  0  0  0
  7  8  1  0  0  0
  8  9  2  0  0  0
  9 10  1  0  0  0
 10 11  2  0  0  0
 11 12  1  0  0  0
 12 13  2  0  0  0
 13 14  1  0  0  0
 14 15  2  0  0  0
  1 16  1  0  0  0
 16 17  2  0  0  0
 17 18  1  0  0  0
 18 19  2  0  0  0
 19 20  1  0  0  0
 20 21  1  0  0  0
 20 22  2  0  0  0
 25 26  1  0  0  0
 26 27  2  0  0  0
 26 28  1  0  0  0
 28 30  1  0  0  0
 30 31  1  0  0  0
 15  6  1  0  0  0
 22 16  1  0  0  0
 15 10  1  0  0  0
  4  5  1  0  0  0
 28 29  1  0  0  0
M  END
> <minimizedAffinity>
-8.01468

> <CNNscore>
0.5653582811

> <CNNaffinity>
6.4795098305

> <CNN_VS>
3.6632444859

> <CNNaffinity_variance>
0.0501536839

$$$$



 31 33  0  0  0  0  0  0  0  0999 V2000
    8.9125   -1.5596   22.4294 N   0  0  0  0  0  0  0  0  0  0  0  0
    7.7169   -2.0807   23.1702 C   0  0  0  0  0  0  0  0  0  0  0  0
    6.3469   -1.9419   22.5755 O   0  0  0  0  0  0  0  0  0  0  0  0
    7.8914   -2.7408   24.5059 N   0  0  0  0  0  0  0  0  0  0  0  0
    8.7906   -2.8319   24.8962 H   0  0  0  0  0  0  0  0  0  0  0  0
    6.6958   -3.2620   25.2467 C   0  0  0  0  0  0  0  0  0  0  0  0
    5.8949   -2.3421   26.1199 C   0  0  0  0  0  0  0  0  0  0  0  0
    4.6993   -2.8633   26.8608 N   0  0  0  0  0  0  0  0  0  0  0  0
    4.3046   -4.3043   26.7285 C   0  0  0  0  0  0  0  0  0  0  0  0
    5.1055   -5.2243   25.8554 C   0  0  0  0  0  0  0  0  0  0  0  0
    4.7108   -6.6653   25.7231 C   0  0  0  0  0  0  0  0  0  0  0  0
    5.5116   -7.5852   24.8500 C   0  0  0  0  0  0  0  0  0  0  0  0
    6.7072   -7.0640   24.1091 C   0  0  0  0  0  0  0  0  0  0  0  0
    7.1020   -5.6230   24.2413 C   0  0  0  0  0  0  0  0  0  0  0  0
    6.3011   -4.7031   25.1145 C   0  0  0  0  0  0  0  0  0  0  0  0
   10.2825   -1.6984   23.0241 C   0  0  0  0  0  0  0  0  0  0  0  0
   11.4796   -1.1891   22.2772 C   0  0  0  0  0  0  0  0  0  0  0  0
   12.8496   -1.3279   22.8719 C   0  0  0  0  0  0  0  0  0  0  0  0
   13.0227   -1.9761   24.2135 C   0  0  0  0  0  0  0  0  0  0  0  0
   11.8258   -2.4854   24.9604 C   0  0  0  0  0  0  0  0  0  0  0  0
   11.9988   -3.1336   26.3020 Cl  0  0  0  0  0  0  0  0  0  0  0  0
   10.4556   -2.3466   24.3657 C   0  0  0  0  0  0  0  0  0  0  0  0
    8.7381   -0.8995   21.0937 C   0  0  0  0  0  0  0  0  0  0  0  0
    8.2529    1.5453   21.8268 C   0  0  0  0  0  0  0  0  0  0  0  0
    7.9224    0.3540   20.9774 C   0  0  0  0  0  0  0  0  0  0  0  0
    6.7763    0.4161   20.0117 C   0  0  0  0  0  0  0  0  0  0  0  0
    6.9754    0.0020   18.5839 O   0  0  0  0  0  0  0  0  0  0  0  0
    5.4311    0.8924   20.4739 N   0  0  0  0  0  0  0  0  0  0  0  0
    5.3005    1.1642   21.4111 H   0  0  0  0  0  0  0  0  0  0  0  0
    4.2850    0.9545   19.5083 C   0  0  0  0  0  0  0  0  0  0  0  0
    3.6364    2.2709   19.1978 C   0  0  0  0  0  0  0  0  0  0  0  0
 24 25  2  0  0  0
 25 23  1  0  0  0
 23  1  1  0  0  0
  1  2  1  0  0  0
  2  3  2  0  0  0
  2  4  1  0  0  0
  4  6  1  0  0  0
  6  7  2  0  0  0
  7  8  1  0  0  0
  8  9  2  0  0  0
  9 10  1  0  0  0
 10 11  2  0  0  0
 11 12  1  0  0  0
 12 13  2  0  0  0
 13 14  1  0  0  0
 14 15  2  0  0  0
  1 16  1  0  0  0
 16 17  2  0  0  0
 17 18  1  0  0  0
 18 19  2  0  0  0
 19 20  1  0  0  0
 20 21  1  0  0  0
 20 22  2  0  0  0
 25 26  1  0  0  0
 26 27  2  0  0  0
 26 28  1  0  0  0
 28 30  1  0  0  0
 30 31  1  0  0  0
 15  6  1  0  0  0
 22 16  1  0  0  0
 15 10  1  0  0  0
  4  5  1  0  0  0
 28 29  1  0  0  0
M  END
> <minimizedAffinity>
-7.44010

> <CNNscore>
0.5449914932

> <CNNaffinity>
6.4055299759

> <CNN_VS>
3.4909594059

> <CNNaffinity_variance>
0.0611433014

$$$$



 31 33  0  0  0  0  0  0  0  0999 V2000
    6.5941   -2.7013   22.3265 N   0  0  0  0  0  0  0  0  0  0  0  0
    7.9529   -2.0677   22.3745 C   0  0  0  0  0  0  0  0  0  0  0  0
    8.2476   -0.8605   21.5342 O   0  0  0  0  0  0  0  0  0  0  0  0
    9.0169   -2.6411   23.2627 N   0  0  0  0  0  0  0  0  0  0  0  0
    8.8234   -3.4334   23.8142 H   0  0  0  0  0  0  0  0  0  0  0  0
   10.3756   -2.0075   23.3107 C   0  0  0  0  0  0  0  0  0  0  0  0
   10.7843   -1.0279   22.2509 C   0  0  0  0  0  0  0  0  0  0  0  0
   12.1430   -0.3943   22.2989 N   0  0  0  0  0  0  0  0  0  0  0  0
   13.0932   -0.7403   23.4068 C   0  0  0  0  0  0  0  0  0  0  0  0
   12.6846   -1.7199   24.4667 C   0  0  0  0  0  0  0  0  0  0  0  0
   13.6347   -2.0659   25.5746 C   0  0  0  0  0  0  0  0  0  0  0  0
   13.2261   -3.0455   26.6345 C   0  0  0  0  0  0  0  0  0  0  0  0
   11.8673   -3.6791   26.5865 C   0  0  0  0  0  0  0  0  0  0  0  0
   10.9172   -3.3331   25.4786 C   0  0  0  0  0  0  0  0  0  0  0  0
   11.3258   -2.3535   24.4187 C   0  0  0  0  0  0  0  0  0  0  0  0
    6.2993   -3.9083   23.1667 C   0  0  0  0  0  0  0  0  0  0  0  0
    5.3447   -3.8050   24.3191 C   0  0  0  0  0  0  0  0  0  0  0  0
    5.0499   -5.0121   25.1594 C   0  0  0  0  0  0  0  0  0  0  0  0
    5.7097   -6.3225   24.8473 C   0  0  0  0  0  0  0  0  0  0  0  0
    6.6644   -6.4258   23.6949 C   0  0  0  0  0  0  0  0  0  0  0  0
    7.3242   -7.7363   23.3828 Cl  0  0  0  0  0  0  0  0  0  0  0  0
    6.9592   -5.2187   22.8546 C   0  0  0  0  0  0  0  0  0  0  0  0
    5.5301   -2.1277   21.4381 C   0  0  0  0  0  0  0  0  0  0  0  0
    5.3731    0.1751   20.2456 C   0  0  0  0  0  0  0  0  0  0  0  0
    5.2265   -0.6595   21.4833 C   0  0  0  0  0  0  0  0  0  0  0  0
    4.7762   -0.0259   22.7662 C   0  0  0  0  0  0  0  0  0  0  0  0
    3.6106    0.9181   22.7677 O   0  0  0  0  0  0  0  0  0  0  0  0
    5.4917   -0.3363   24.0475 N   0  0  0  0  0  0  0  0  0  0  0  0
    6.2567   -0.9559   24.0465 H   0  0  0  0  0  0  0  0  0  0  0  0
    5.0414    0.2973   25.3304 C   0  0  0  0  0  0  0  0  0  0  0  0
    3.5794    0.3720   25.6573 C   0  0  0  0  0  0  0  0  0  0  0  0
 24 25  2  0  0  0
 25 23  1  0  0  0
 23  1  1  0  0  0
  1  2  1  0  0  0
  2  3  2  0  0  0
  2  4  1  0  0  0
  4  6  1  0  0  0
  6  7  2  0  0  0
  7  8  1  0  0  0
  8  9  2  0  0  0
  9 10  1  0  0  0
 10 11  2  0  0  0
 11 12  1  0  0  0
 12 13  2  0  0  0
 13 14  1  0  0  0
 14 15  2  0  0  0
  1 16  1  0  0  0
 16 17  2  0  0  0
 17 18  1  0  0  0
 18 19  2  0  0  0
 19 20  1  0  0  0
 20 21  1  0  0  0
 20 22  2  0  0  0
 25 26  1  0  0  0
 26 27  2  0  0  0
 26 28  1  0  0  0
 28 30  1  0  0  0
 30 31  1  0  0  0
 15  6  1  0  0  0
 22 16  1  0  0  0
 15 10  1  0  0  0
  4  5  1  0  0  0
 28 29  1  0  0  0
M  END
> <minimizedAffinity>
-7.30687

> <CNNscore>
0.5441434979

> <CNNaffinity>
6.3285365105

> <CNN_VS>
3.4436318874

> <CNNaffinity_variance>
0.0925288647

$$$$



 31 33  0  0  0  0  0  0  0  0999 V2000
   10.1538   -1.7569   23.2454 N   0  0  0  0  0  0  0  0  0  0  0  0
    8.8216   -2.4293   23.0930 C   0  0  0  0  0  0  0  0  0  0  0  0
    7.8638   -1.9651   22.0360 O   0  0  0  0  0  0  0  0  0  0  0  0
    8.4473   -3.5658   23.9975 N   0  0  0  0  0  0  0  0  0  0  0  0
    9.0759   -3.8704   24.6912 H   0  0  0  0  0  0  0  0  0  0  0  0
    7.1151   -4.2382   23.8451 C   0  0  0  0  0  0  0  0  0  0  0  0
    6.7788   -4.9565   22.5720 C   0  0  0  0  0  0  0  0  0  0  0  0
    5.4467   -5.6289   22.4196 N   0  0  0  0  0  0  0  0  0  0  0  0
    4.4508   -5.5829   23.5403 C   0  0  0  0  0  0  0  0  0  0  0  0
    4.7870   -4.8645   24.8134 C   0  0  0  0  0  0  0  0  0  0  0  0
    3.7911   -4.8186   25.9341 C   0  0  0  0  0  0  0  0  0  0  0  0
    4.1273   -4.1002   27.2072 C   0  0  0  0  0  0  0  0  0  0  0  0
    5.4595   -3.4278   27.3596 C   0  0  0  0  0  0  0  0  0  0  0  0
    6.4554   -3.4738   26.2390 C   0  0  0  0  0  0  0  0  0  0  0  0
    6.1191   -4.1921   24.9659 C   0  0  0  0  0  0  0  0  0  0  0  0
   11.1116   -2.2210   24.3023 C   0  0  0  0  0  0  0  0  0  0  0  0
   12.5609   -1.8433   24.2192 C   0  0  0  0  0  0  0  0  0  0  0  0
   13.5187   -2.3074   25.2761 C   0  0  0  0  0  0  0  0  0  0  0  0
   13.0273   -3.1492   26.4163 C   0  0  0  0  0  0  0  0  0  0  0  0
   11.5780   -3.5268   26.4995 C   0  0  0  0  0  0  0  0  0  0  0  0
   11.0866   -4.3686   27.6396 Cl  0  0  0  0  0  0  0  0  0  0  0  0
   10.6201   -3.0627   25.4425 C   0  0  0  0  0  0  0  0  0  0  0  0
   10.5281   -0.6204   22.3408 C   0  0  0  0  0  0  0  0  0  0  0  0
   11.6392    1.4136   23.5150 C   0  0  0  0  0  0  0  0  0  0  0  0
   10.4523    0.7920   22.8403 C   0  0  0  0  0  0  0  0  0  0  0  0
    9.1899    1.5828   22.6651 C   0  0  0  0  0  0  0  0  0  0  0  0
    8.4549    1.5425   21.3581 O   0  0  0  0  0  0  0  0  0  0  0  0
    8.6623    2.4139   23.7969 N   0  0  0  0  0  0  0  0  0  0  0  0
    9.1446    2.4403   24.6547 H   0  0  0  0  0  0  0  0  0  0  0  0
    7.3998    3.2046   23.6217 C   0  0  0  0  0  0  0  0  0  0  0  0
    7.3673    4.6576   23.9929 C   0  0  0  0  0  0  0  0  0  0  0  0
 24 25  2  0  0  0
 25 23  1  0  0  0
 23  1  1  0  0  0
  1  2  1  0  0  0
  2  3  2  0  0  0
  2  4  1  0  0  0
  4  6  1  0  0  0
  6  7  2  0  0  0
  7  8  1  0  0  0
  8  9  2  0  0  0
  9 10  1  0  0  0
 10 11  2  0  0  0
 11 12  1  0  0  0
 12 13  2  0  0  0
 13 14  1  0  0  0
 14 15  2  0  0  0
  1 16  1  0  0  0
 16 17  2  0  0  0
 17 18  1  0  0  0
 18 19  2  0  0  0
 19 20  1  0  0  0
 20 21  1  0  0  0
 20 22  2  0  0  0
 25 26  1  0  0  0
 26 27  2  0  0  0
 26 28  1  0  0  0
 28 30  1  0  0  0
 30 31  1  0  0  0
 15  6  1  0  0  0
 22 16  1  0  0  0
 15 10  1  0  0  0
  4  5  1  0  0  0
 28 29  1  0  0  0
M  END
> <minimizedAffinity>
-7.11481

> <CNNscore>
0.5027297735

> <CNNaffinity>
6.2260031700

> <CNN_VS>
3.1299972534

> <CNNaffinity_variance>
0.0986967385

$$$$



 31 33  0  0  0  0  0  0  0  0999 V2000
    9.3946   -0.4278   22.6511 N   0  0  0  0  0  0  0  0  0  0  0  0
    9.6174    1.0265   22.3592 C   0  0  0  0  0  0  0  0  0  0  0  0
    8.8288    1.7038   21.2777 O   0  0  0  0  0  0  0  0  0  0  0  0
   10.6287    1.8036   23.1487 N   0  0  0  0  0  0  0  0  0  0  0  0
   11.1462    1.3591   23.8585 H   0  0  0  0  0  0  0  0  0  0  0  0
   10.8515    3.2580   22.8568 C   0  0  0  0  0  0  0  0  0  0  0  0
   12.1710    3.7203   22.3136 C   0  0  0  0  0  0  0  0  0  0  0  0
   12.3938    5.1747   22.0217 N   0  0  0  0  0  0  0  0  0  0  0  0
   11.2971    6.1667   22.2729 C   0  0  0  0  0  0  0  0  0  0  0  0
    9.9775    5.7043   22.8161 C   0  0  0  0  0  0  0  0  0  0  0  0
    8.8808    6.6963   23.0674 C   0  0  0  0  0  0  0  0  0  0  0  0
    7.5613    6.2339   23.6106 C   0  0  0  0  0  0  0  0  0  0  0  0
    7.3385    4.7796   23.9025 C   0  0  0  0  0  0  0  0  0  0  0  0
    8.4352    3.7876   23.6512 C   0  0  0  0  0  0  0  0  0  0  0  0
    9.7547    4.2500   23.1081 C   0  0  0  0  0  0  0  0  0  0  0  0
   10.1831   -1.1051   23.7325 C   0  0  0  0  0  0  0  0  0  0  0  0
   11.4244   -0.4588   24.2726 C   0  0  0  0  0  0  0  0  0  0  0  0
   12.2129   -1.1360   25.3540 C   0  0  0  0  0  0  0  0  0  0  0  0
   11.7602   -2.4597   25.8954 C   0  0  0  0  0  0  0  0  0  0  0  0
   10.5190   -3.1060   25.3554 C   0  0  0  0  0  0  0  0  0  0  0  0
   10.0663   -4.4296   25.8969 Cl  0  0  0  0  0  0  0  0  0  0  0  0
    9.7304   -2.4287   24.2740 C   0  0  0  0  0  0  0  0  0  0  0  0
    8.3832   -1.2049   21.8616 C   0  0  0  0  0  0  0  0  0  0  0  0
    6.3215   -0.2389   23.1132 C   0  0  0  0  0  0  0  0  0  0  0  0
    6.9876   -1.3695   22.3863 C   0  0  0  0  0  0  0  0  0  0  0  0
    6.2582   -2.6644   22.1842 C   0  0  0  0  0  0  0  0  0  0  0  0
    5.1756   -2.7620   21.1506 O   0  0  0  0  0  0  0  0  0  0  0  0
    6.6113   -3.8619   23.0158 N   0  0  0  0  0  0  0  0  0  0  0  0
    7.3219   -3.7978   23.6942 H   0  0  0  0  0  0  0  0  0  0  0  0
    5.8819   -5.1569   22.8137 C   0  0  0  0  0  0  0  0  0  0  0  0
    6.4882   -6.2346   21.9646 C   0  0  0  0  0  0  0  0  0  0  0  0
 24 25  2  0  0  0
 25 23  1  0  0  0
 23  1  1  0  0  0
  1  2  1  0  0  0
  2  3  2  0  0  0
  2  4  1  0  0  0
  4  6  1  0  0  0
  6  7  2  0  0  0
  7  8  1  0  0  0
  8  9  2  0  0  0
  9 10  1  0  0  0
 10 11  2  0  0  0
 11 12  1  0  0  0
 12 13  2  0  0  0
 13 14  1  0  0  0
 14 15  2  0  0  0
  1 16  1  0  0  0
 16 17  2  0  0  0
 17 18  1  0  0  0
 18 19  2  0  0  0
 19 20  1  0  0  0
 20 21  1  0  0  0
 20 22  2  0  0  0
 25 26  1  0  0  0
 26 27  2  0  0  0
 26 28  1  0  0  0
 28 30  1  0  0  0
 30 31  1  0  0  0
 15  6  1  0  0  0
 22 16  1  0  0  0
 15 10  1  0  0  0
  4  5  1  0  0  0
 28 29  1  0  0  0
M  END
> <minimizedAffinity>
-7.02932

> <CNNscore>
0.4957091212

> <CNNaffinity>
6.3481664658

> <CNN_VS>
3.1468439102

> <CNNaffinity_variance>
0.0764269084

$$$$
