


 27 31  0  0  0  0  0  0  0  0999 V2000
    7.0491   -4.2936   23.6132 C   0  0  0  0  0  0  0  0  0  0  0  0
    7.1457   -3.0495   22.7809 N   0  0  0  0  0  0  0  0  0  0  0  0
    6.1154   -2.5571   21.8083 C   0  0  0  0  0  0  0  0  0  0  0  0
    4.8075   -3.2225   21.4973 O   0  0  0  0  0  0  0  0  0  0  0  0
    6.6225   -1.2826   21.2014 N   0  0  0  0  0  0  0  0  0  0  0  0
    7.9663   -0.9872   21.7989 C   0  0  0  0  0  0  0  0  0  0  0  0
    8.8343    0.1929   21.4767 O   0  0  0  0  0  0  0  0  0  0  0  0
    8.2897   -2.0792   22.7751 C   0  0  0  0  0  0  0  0  0  0  0  0
    9.5308   -1.2512   22.9296 C   0  0  0  0  0  0  0  0  0  0  0  0
   10.0548   -2.2256   23.9424 N   0  0  0  0  0  0  0  0  0  0  0  0
    8.8136   -3.0537   23.7879 C   0  0  0  0  0  0  0  0  0  0  0  0
    5.9108   -0.4496   20.1768 C   0  0  0  0  0  0  0  0  0  0  0  0
    6.3130   -0.5300   18.7340 C   0  0  0  0  0  0  0  0  0  0  0  0
    5.6013    0.3030   17.7095 N   0  0  0  0  0  0  0  0  0  0  0  0
    4.4873    1.2162   18.1277 C   0  0  0  0  0  0  0  0  0  0  0  0
    4.0850    1.2966   19.5706 C   0  0  0  0  0  0  0  0  0  0  0  0
    2.9711    2.2099   19.9888 C   0  0  0  0  0  0  0  0  0  0  0  0
    2.5688    2.2902   21.4316 C   0  0  0  0  0  0  0  0  0  0  0  0
    3.2805    1.4573   22.4562 C   0  0  0  0  0  0  0  0  0  0  0  0
    4.3945    0.5440   22.0379 C   0  0  0  0  0  0  0  0  0  0  0  0
    4.7967    0.4637   20.5951 C   0  0  0  0  0  0  0  0  0  0  0  0
   11.3030   -2.3292   24.7679 S   0  0  0  0  0  0  0  0  0  0  0  0
   10.9063   -3.7118   25.1938 O   0  0  0  0  0  0  0  0  0  0  0  0
   11.6996   -0.9468   24.3420 O   0  0  0  0  0  0  0  0  0  0  0  0
   12.5511   -2.4330   25.5934 C   0  0  0  0  0  0  0  0  0  0  0  0
   13.3284   -3.0885   26.6961 C   0  0  0  0  0  0  0  0  0  0  0  0
   13.9355   -1.9572   25.9205 C   0  0  0  0  0  0  0  0  0  0  0  0
  1  2  1  0  0  0
  2  3  1  0  0  0
  3  4  2  0  0  0
  3  5  1  0  0  0
  5 12  1  0  0  0
 12 13  2  0  0  0
 13 14  1  0  0  0
 14 15  2  0  0  0
 15 16  1  0  0  0
 16 17  2  0  0  0
 17 18  1  0  0  0
 18 19  2  0  0  0
 19 20  1  0  0  0
 20 21  2  0  0  0
  5  6  1  0  0  0
  6  7  2  0  0  0
  6  8  1  0  0  0
  8  9  1  0  0  0
  9 10  1  0  0  0
 10 22  1  0  0  0
 22 23  2  0  0  0
 22 24  2  0  0  0
 22 25  1  0  0  0
 25 26  1  0  0  0
 26 27  1  0  0  0
 10 11  1  0  0  0
  8  2  1  0  0  0
 27 25  1  0  0  0
 21 12  1  0  0  0
 11  8  1  0  0  0
 21 16  1  0  0  0
M  END
> <minimizedAffinity>
-7.99592

> <CNNscore>
0.7326036692

> <CNNaffinity>
5.8755807877

> <CNN_VS>
4.3044719696

> <CNNaffinity_variance>
0.1236001998

$$$$



 27 31  0  0  0  0  0  0  0  0999 V2000
   10.0053    3.0068   22.1703 C   0  0  0  0  0  0  0  0  0  0  0  0
   10.0705    1.5603   22.5621 N   0  0  0  0  0  0  0  0  0  0  0  0
   11.0875    0.9385   23.4726 C   0  0  0  0  0  0  0  0  0  0  0  0
   12.2179    1.6540   24.1511 O   0  0  0  0  0  0  0  0  0  0  0  0
   10.7758   -0.5244   23.5854 N   0  0  0  0  0  0  0  0  0  0  0  0
    9.5661   -0.8067   22.7446 C   0  0  0  0  0  0  0  0  0  0  0  0
    8.9079   -2.1429   22.5674 O   0  0  0  0  0  0  0  0  0  0  0  0
    9.1302    0.4817   22.1122 C   0  0  0  0  0  0  0  0  0  0  0  0
    8.0820   -0.4266   21.5410 C   0  0  0  0  0  0  0  0  0  0  0  0
    7.4747    0.7340   20.8102 N   0  0  0  0  0  0  0  0  0  0  0  0
    8.5229    1.6423   21.3814 C   0  0  0  0  0  0  0  0  0  0  0  0
   11.5397   -1.5287   24.3966 C   0  0  0  0  0  0  0  0  0  0  0  0
   13.0037   -1.7379   24.1459 C   0  0  0  0  0  0  0  0  0  0  0  0
   13.7675   -2.7421   24.9570 N   0  0  0  0  0  0  0  0  0  0  0  0
   13.0674   -3.5372   26.0189 C   0  0  0  0  0  0  0  0  0  0  0  0
   11.6033   -3.3280   26.2697 C   0  0  0  0  0  0  0  0  0  0  0  0
   10.9032   -4.1230   27.3316 C   0  0  0  0  0  0  0  0  0  0  0  0
    9.4392   -3.9138   27.5823 C   0  0  0  0  0  0  0  0  0  0  0  0
    8.6753   -2.9095   26.7712 C   0  0  0  0  0  0  0  0  0  0  0  0
    9.3755   -2.1145   25.7093 C   0  0  0  0  0  0  0  0  0  0  0  0
   10.8395   -2.3237   25.4585 C   0  0  0  0  0  0  0  0  0  0  0  0
    6.3040    0.9126   19.8894 S   0  0  0  0  0  0  0  0  0  0  0  0
    5.6065    1.7312   20.9352 O   0  0  0  0  0  0  0  0  0  0  0  0
    7.0015    0.0940   18.8437 O   0  0  0  0  0  0  0  0  0  0  0  0
    5.1333    1.0912   18.9688 C   0  0  0  0  0  0  0  0  0  0  0  0
    3.6948    1.4569   18.7526 C   0  0  0  0  0  0  0  0  0  0  0  0
    4.5442    1.0349   17.5905 C   0  0  0  0  0  0  0  0  0  0  0  0
  1  2  1  0  0  0
  2  3  1  0  0  0
  3  4  2  0  0  0
  3  5  1  0  0  0
  5 12  1  0  0  0
 12 13  2  0  0  0
 13 14  1  0  0  0
 14 15  2  0  0  0
 15 16  1  0  0  0
 16 17  2  0  0  0
 17 18  1  0  0  0
 18 19  2  0  0  0
 19 20  1  0  0  0
 20 21  2  0  0  0
  5  6  1  0  0  0
  6  7  2  0  0  0
  6  8  1  0  0  0
  8  9  1  0  0  0
  9 10  1  0  0  0
 10 22  1  0  0  0
 22 23  2  0  0  0
 22 24  2  0  0  0
 22 25  1  0  0  0
 25 26  1  0  0  0
 26 27  1  0  0  0
 10 11  1  0  0  0
  8  2  1  0  0  0
 27 25  1  0  0  0
 21 12  1  0  0  0
 11  8  1  0  0  0
 21 16  1  0  0  0
M  END
> <minimizedAffinity>
-7.23366

> <CNNscore>
0.6887255907

> <CNNaffinity>
5.9889512062

> <CNN_VS>
4.1247439384

> <CNNaffinity_variance>
0.0500282273

$$$$



 27 31  0  0  0  0  0  0  0  0999 V2000
    5.2367   -4.3466   22.0145 C   0  0  0  0  0  0  0  0  0  0  0  0
    6.3284   -3.5923   22.7141 N   0  0  0  0  0  0  0  0  0  0  0  0
    7.3616   -4.1819   23.6278 C   0  0  0  0  0  0  0  0  0  0  0  0
    7.4844   -5.6291   24.0024 O   0  0  0  0  0  0  0  0  0  0  0  0
    8.2503   -3.0701   24.1013 N   0  0  0  0  0  0  0  0  0  0  0  0
    7.7663   -1.7934   23.4801 C   0  0  0  0  0  0  0  0  0  0  0  0
    8.3650   -0.4328   23.6809 O   0  0  0  0  0  0  0  0  0  0  0  0
    6.5785   -2.1162   22.6227 C   0  0  0  0  0  0  0  0  0  0  0  0
    6.6430   -0.6363   22.3869 C   0  0  0  0  0  0  0  0  0  0  0  0
    5.4506   -0.7286   21.4815 N   0  0  0  0  0  0  0  0  0  0  0  0
    5.3862   -2.2086   21.7174 C   0  0  0  0  0  0  0  0  0  0  0  0
    9.4179   -3.2103   25.0324 C   0  0  0  0  0  0  0  0  0  0  0  0
    9.2404   -3.8816   26.3620 C   0  0  0  0  0  0  0  0  0  0  0  0
   10.4081   -4.0218   27.2931 N   0  0  0  0  0  0  0  0  0  0  0  0
   11.7531   -3.4908   26.8947 C   0  0  0  0  0  0  0  0  0  0  0  0
   11.9306   -2.8195   25.5650 C   0  0  0  0  0  0  0  0  0  0  0  0
   13.2756   -2.2885   25.1665 C   0  0  0  0  0  0  0  0  0  0  0  0
   13.4531   -1.6172   23.8370 C   0  0  0  0  0  0  0  0  0  0  0  0
   12.2855   -1.4770   22.9058 C   0  0  0  0  0  0  0  0  0  0  0  0
   10.9404   -2.0080   23.3043 C   0  0  0  0  0  0  0  0  0  0  0  0
   10.7630   -2.6793   24.6339 C   0  0  0  0  0  0  0  0  0  0  0  0
    4.6530    0.2525   20.6745 S   0  0  0  0  0  0  0  0  0  0  0  0
    3.9094    0.6645   21.9104 O   0  0  0  0  0  0  0  0  0  0  0  0
    5.3965   -0.1595   19.4386 O   0  0  0  0  0  0  0  0  0  0  0  0
    3.8553    1.2336   19.8676 C   0  0  0  0  0  0  0  0  0  0  0  0
    2.7161    2.2032   19.7579 C   0  0  0  0  0  0  0  0  0  0  0  0
    3.6128    1.9632   18.5796 C   0  0  0  0  0  0  0  0  0  0  0  0
  1  2  1  0  0  0
  2  3  1  0  0  0
  3  4  2  0  0  0
  3  5  1  0  0  0
  5 12  1  0  0  0
 12 13  2  0  0  0
 13 14  1  0  0  0
 14 15  2  0  0  0
 15 16  1  0  0  0
 16 17  2  0  0  0
 17 18  1  0  0  0
 18 19  2  0  0  0
 19 20  1  0  0  0
 20 21  2  0  0  0
  5  6  1  0  0  0
  6  7  2  0  0  0
  6  8  1  0  0  0
  8  9  1  0  0  0
  9 10  1  0  0  0
 10 22  1  0  0  0
 22 23  2  0  0  0
 22 24  2  0  0  0
 22 25  1  0  0  0
 25 26  1  0  0  0
 26 27  1  0  0  0
 10 11  1  0  0  0
  8  2  1  0  0  0
 27 25  1  0  0  0
 21 12  1  0  0  0
 11  8  1  0  0  0
 21 16  1  0  0  0
M  END
> <minimizedAffinity>
-7.48033

> <CNNscore>
0.6378232837

> <CNNaffinity>
5.8260145187

> <CNN_VS>
3.7159676552

> <CNNaffinity_variance>
0.1413185298

$$$$



 27 31  0  0  0  0  0  0  0  0999 V2000
    5.3552   -3.3626   22.2340 C   0  0  0  0  0  0  0  0  0  0  0  0
    6.6008   -2.5349   22.3492 N   0  0  0  0  0  0  0  0  0  0  0  0
    7.9341   -3.0124   22.8436 C   0  0  0  0  0  0  0  0  0  0  0  0
    8.2557   -4.4014   23.3096 O   0  0  0  0  0  0  0  0  0  0  0  0
    8.8892   -1.8570   22.7901 N   0  0  0  0  0  0  0  0  0  0  0  0
    8.1462   -0.6655   22.2627 C   0  0  0  0  0  0  0  0  0  0  0  0
    8.7173    0.7045   22.0458 O   0  0  0  0  0  0  0  0  0  0  0  0
    6.7319   -1.0844   21.9901 C   0  0  0  0  0  0  0  0  0  0  0  0
    6.6355    0.3530   21.5725 C   0  0  0  0  0  0  0  0  0  0  0  0
    5.1883    0.1565   21.2304 N   0  0  0  0  0  0  0  0  0  0  0  0
    5.2848   -1.2810   21.6481 C   0  0  0  0  0  0  0  0  0  0  0  0
   10.3337   -1.8878   23.1933 C   0  0  0  0  0  0  0  0  0  0  0  0
   11.3848   -1.3694   22.2573 C   0  0  0  0  0  0  0  0  0  0  0  0
   12.8293   -1.4002   22.6605 N   0  0  0  0  0  0  0  0  0  0  0  0
   13.2226   -1.9493   23.9997 C   0  0  0  0  0  0  0  0  0  0  0  0
   12.1714   -2.4677   24.9359 C   0  0  0  0  0  0  0  0  0  0  0  0
   12.5647   -3.0169   26.2751 C   0  0  0  0  0  0  0  0  0  0  0  0
   11.5135   -3.5353   27.2112 C   0  0  0  0  0  0  0  0  0  0  0  0
   10.0691   -3.5045   26.8080 C   0  0  0  0  0  0  0  0  0  0  0  0
    9.6758   -2.9554   25.4687 C   0  0  0  0  0  0  0  0  0  0  0  0
   10.7269   -2.4370   24.5327 C   0  0  0  0  0  0  0  0  0  0  0  0
    4.0967    1.0339   20.6932 S   0  0  0  0  0  0  0  0  0  0  0  0
    3.7086    1.4081   22.0931 O   0  0  0  0  0  0  0  0  0  0  0  0
    4.4848    0.6598   19.2934 O   0  0  0  0  0  0  0  0  0  0  0  0
    3.0051    1.9113   20.1561 C   0  0  0  0  0  0  0  0  0  0  0  0
    1.5625    2.3213   20.1300 C   0  0  0  0  0  0  0  0  0  0  0  0
    2.5570    3.0212   19.2519 C   0  0  0  0  0  0  0  0  0  0  0  0
  1  2  1  0  0  0
  2  3  1  0  0  0
  3  4  2  0  0  0
  3  5  1  0  0  0
  5 12  1  0  0  0
 12 13  2  0  0  0
 13 14  1  0  0  0
 14 15  2  0  0  0
 15 16  1  0  0  0
 16 17  2  0  0  0
 17 18  1  0  0  0
 18 19  2  0  0  0
 19 20  1  0  0  0
 20 21  2  0  0  0
  5  6  1  0  0  0
  6  7  2  0  0  0
  6  8  1  0  0  0
  8  9  1  0  0  0
  9 10  1  0  0  0
 10 22  1  0  0  0
 22 23  2  0  0  0
 22 24  2  0  0  0
 22 25  1  0  0  0
 25 26  1  0  0  0
 26 27  1  0  0  0
 10 11  1  0  0  0
  8  2  1  0  0  0
 27 25  1  0  0  0
 21 12  1  0  0  0
 11  8  1  0  0  0
 21 16  1  0  0  0
M  END
> <minimizedAffinity>
-7.45129

> <CNNscore>
0.5728496313

> <CNNaffinity>
5.7024693489

> <CNN_VS>
3.2666573524

> <CNNaffinity_variance>
0.0851527676

$$$$



 27 31  0  0  0  0  0  0  0  0999 V2000
    4.7905    0.3748   25.0548 C   0  0  0  0  0  0  0  0  0  0  0  0
    6.0373   -0.4277   24.8285 N   0  0  0  0  0  0  0  0  0  0  0  0
    6.8742   -1.0754   25.8916 C   0  0  0  0  0  0  0  0  0  0  0  0
    6.6110   -1.0342   27.3678 O   0  0  0  0  0  0  0  0  0  0  0  0
    8.0203   -1.7715   25.2194 N   0  0  0  0  0  0  0  0  0  0  0  0
    7.8918   -1.5540   23.7409 C   0  0  0  0  0  0  0  0  0  0  0  0
    8.8250   -2.0755   22.6886 O   0  0  0  0  0  0  0  0  0  0  0  0
    6.6663   -0.7235   23.4992 C   0  0  0  0  0  0  0  0  0  0  0  0
    7.1179   -0.8941   22.0791 C   0  0  0  0  0  0  0  0  0  0  0  0
    5.9487   -0.0804   21.6095 N   0  0  0  0  0  0  0  0  0  0  0  0
    5.4970    0.0903   23.0297 C   0  0  0  0  0  0  0  0  0  0  0  0
    9.1045   -2.5486   25.9054 C   0  0  0  0  0  0  0  0  0  0  0  0
    8.7505   -3.6898   26.8121 C   0  0  0  0  0  0  0  0  0  0  0  0
    9.8348   -4.4669   27.4981 N   0  0  0  0  0  0  0  0  0  0  0  0
   11.2730   -4.1028   27.2773 C   0  0  0  0  0  0  0  0  0  0  0  0
   11.6271   -2.9615   26.3705 C   0  0  0  0  0  0  0  0  0  0  0  0
   13.0654   -2.5973   26.1498 C   0  0  0  0  0  0  0  0  0  0  0  0
   13.4194   -1.4561   25.2431 C   0  0  0  0  0  0  0  0  0  0  0  0
   12.3351   -0.6790   24.5571 C   0  0  0  0  0  0  0  0  0  0  0  0
   10.8969   -1.0431   24.7779 C   0  0  0  0  0  0  0  0  0  0  0  0
   10.5429   -2.1844   25.6846 C   0  0  0  0  0  0  0  0  0  0  0  0
    5.4411    0.3745   20.2732 S   0  0  0  0  0  0  0  0  0  0  0  0
    5.9156    1.7669   20.5671 O   0  0  0  0  0  0  0  0  0  0  0  0
    4.9666   -1.0178   19.9793 O   0  0  0  0  0  0  0  0  0  0  0  0
    4.9336    0.8295   18.9370 C   0  0  0  0  0  0  0  0  0  0  0  0
    4.9858    0.7713   17.4391 C   0  0  0  0  0  0  0  0  0  0  0  0
    4.0023    1.6759   18.1207 C   0  0  0  0  0  0  0  0  0  0  0  0
  1  2  1  0  0  0
  2  3  1  0  0  0
  3  4  2  0  0  0
  3  5  1  0  0  0
  5 12  1  0  0  0
 12 13  2  0  0  0
 13 14  1  0  0  0
 14 15  2  0  0  0
 15 16  1  0  0  0
 16 17  2  0  0  0
 17 18  1  0  0  0
 18 19  2  0  0  0
 19 20  1  0  0  0
 20 21  2  0  0  0
  5  6  1  0  0  0
  6  7  2  0  0  0
  6  8  1  0  0  0
  8  9  1  0  0  0
  9 10  1  0  0  0
 10 22  1  0  0  0
 22 23  2  0  0  0
 22 24  2  0  0  0
 22 25  1  0  0  0
 25 26  1  0  0  0
 26 27  1  0  0  0
 10 11  1  0  0  0
  8  2  1  0  0  0
 27 25  1  0  0  0
 21 12  1  0  0  0
 11  8  1  0  0  0
 21 16  1  0  0  0
M  END
> <minimizedAffinity>
-6.74056

> <CNNscore>
0.5153214931

> <CNNaffinity>
5.5561532974

> <CNN_VS>
2.8632051945

> <CNNaffinity_variance>
0.0923131779

$$$$



 27 31  0  0  0  0  0  0  0  0999 V2000
    5.5233   -2.4329   21.6177 C   0  0  0  0  0  0  0  0  0  0  0  0
    6.7988   -2.5666   22.3955 N   0  0  0  0  0  0  0  0  0  0  0  0
    8.0917   -1.8674   22.0958 C   0  0  0  0  0  0  0  0  0  0  0  0
    8.3358   -0.9117   20.9658 O   0  0  0  0  0  0  0  0  0  0  0  0
    9.0974   -2.2917   23.1246 N   0  0  0  0  0  0  0  0  0  0  0  0
    8.4262   -3.2532   24.0601 C   0  0  0  0  0  0  0  0  0  0  0  0
    9.0636   -3.9265   25.2392 O   0  0  0  0  0  0  0  0  0  0  0  0
    7.0056   -3.4231   23.6094 C   0  0  0  0  0  0  0  0  0  0  0  0
    6.9867   -4.3404   24.7960 C   0  0  0  0  0  0  0  0  0  0  0  0
    5.5455   -4.6578   24.5278 N   0  0  0  0  0  0  0  0  0  0  0  0
    5.5643   -3.7404   23.3411 C   0  0  0  0  0  0  0  0  0  0  0  0
   10.5239   -1.8348   23.2040 C   0  0  0  0  0  0  0  0  0  0  0  0
   11.1084   -1.0055   22.0992 C   0  0  0  0  0  0  0  0  0  0  0  0
   12.5349   -0.5486   22.1786 N   0  0  0  0  0  0  0  0  0  0  0  0
   13.3770   -0.9210   23.3628 C   0  0  0  0  0  0  0  0  0  0  0  0
   12.7925   -1.7503   24.4676 C   0  0  0  0  0  0  0  0  0  0  0  0
   13.6345   -2.1228   25.6518 C   0  0  0  0  0  0  0  0  0  0  0  0
   13.0500   -2.9521   26.7565 C   0  0  0  0  0  0  0  0  0  0  0  0
   11.6235   -3.4090   26.6771 C   0  0  0  0  0  0  0  0  0  0  0  0
   10.7815   -3.0366   25.4930 C   0  0  0  0  0  0  0  0  0  0  0  0
   11.3660   -2.2073   24.3882 C   0  0  0  0  0  0  0  0  0  0  0  0
    4.5129   -5.5308   25.1770 S   0  0  0  0  0  0  0  0  0  0  0  0
    4.7222   -6.5686   24.1143 O   0  0  0  0  0  0  0  0  0  0  0  0
    4.3035   -4.4931   26.2397 O   0  0  0  0  0  0  0  0  0  0  0  0
    3.4803   -6.4039   25.8262 C   0  0  0  0  0  0  0  0  0  0  0  0
    2.1928   -7.1697   25.7499 C   0  0  0  0  0  0  0  0  0  0  0  0
    2.9793   -7.1504   27.0270 C   0  0  0  0  0  0  0  0  0  0  0  0
  1  2  1  0  0  0
  2  3  1  0  0  0
  3  4  2  0  0  0
  3  5  1  0  0  0
  5 12  1  0  0  0
 12 13  2  0  0  0
 13 14  1  0  0  0
 14 15  2  0  0  0
 15 16  1  0  0  0
 16 17  2  0  0  0
 17 18  1  0  0  0
 18 19  2  0  0  0
 19 20  1  0  0  0
 20 21  2  0  0  0
  5  6  1  0  0  0
  6  7  2  0  0  0
  6  8  1  0  0  0
  8  9  1  0  0  0
  9 10  1  0  0  0
 10 22  1  0  0  0
 22 23  2  0  0  0
 22 24  2  0  0  0
 22 25  1  0  0  0
 25 26  1  0  0  0
 26 27  1  0  0  0
 10 11  1  0  0  0
  8  2  1  0  0  0
 27 25  1  0  0  0
 21 12  1  0  0  0
 11  8  1  0  0  0
 21 16  1  0  0  0
M  END
> <minimizedAffinity>
-7.03203

> <CNNscore>
0.4754249454

> <CNNaffinity>
5.8432278633

> <CNN_VS>
2.7780163288

> <CNNaffinity_variance>
0.0605900958

$$$$



 27 31  0  0  0  0  0  0  0  0999 V2000
    4.6594   -0.6795   25.2919 C   0  0  0  0  0  0  0  0  0  0  0  0
    6.0144   -0.4847   24.6786 N   0  0  0  0  0  0  0  0  0  0  0  0
    7.3240   -0.8908   25.2868 C   0  0  0  0  0  0  0  0  0  0  0  0
    7.5086   -1.5629   26.6151 O   0  0  0  0  0  0  0  0  0  0  0  0
    8.4167   -0.5067   24.3336 N   0  0  0  0  0  0  0  0  0  0  0  0
    7.7823    0.1367   23.1363 C   0  0  0  0  0  0  0  0  0  0  0  0
    8.5056    0.6724   21.9364 O   0  0  0  0  0  0  0  0  0  0  0  0
    6.2976    0.1503   23.3495 C   0  0  0  0  0  0  0  0  0  0  0  0
    6.3475    0.8120   22.0043 C   0  0  0  0  0  0  0  0  0  0  0  0
    4.8523    0.9306   22.0071 N   0  0  0  0  0  0  0  0  0  0  0  0
    4.8023    0.2688   23.3524 C   0  0  0  0  0  0  0  0  0  0  0  0
    9.8858   -0.7273   24.5412 C   0  0  0  0  0  0  0  0  0  0  0  0
   10.8682    0.3291   24.1307 C   0  0  0  0  0  0  0  0  0  0  0  0
   12.3373    0.1085   24.3383 N   0  0  0  0  0  0  0  0  0  0  0  0
   12.8239   -1.1686   24.9565 C   0  0  0  0  0  0  0  0  0  0  0  0
   11.8415   -2.2252   25.3670 C   0  0  0  0  0  0  0  0  0  0  0  0
   12.3281   -3.5023   25.9852 C   0  0  0  0  0  0  0  0  0  0  0  0
   11.3456   -4.5587   26.3957 C   0  0  0  0  0  0  0  0  0  0  0  0
    9.8765   -4.3381   26.1881 C   0  0  0  0  0  0  0  0  0  0  0  0
    9.3899   -3.0610   25.5699 C   0  0  0  0  0  0  0  0  0  0  0  0
   10.3724   -2.0045   25.1594 C   0  0  0  0  0  0  0  0  0  0  0  0
    3.8301    1.4823   21.0580 S   0  0  0  0  0  0  0  0  0  0  0  0
    4.0575    0.3198   20.1375 O   0  0  0  0  0  0  0  0  0  0  0  0
    3.6027    2.6447   21.9783 O   0  0  0  0  0  0  0  0  0  0  0  0
    2.8080    2.0339   20.1088 C   0  0  0  0  0  0  0  0  0  0  0  0
    1.3847    2.3878   19.7942 C   0  0  0  0  0  0  0  0  0  0  0  0
    2.4610    2.6353   18.7791 C   0  0  0  0  0  0  0  0  0  0  0  0
  1  2  1  0  0  0
  2  3  1  0  0  0
  3  4  2  0  0  0
  3  5  1  0  0  0
  5 12  1  0  0  0
 12 13  2  0  0  0
 13 14  1  0  0  0
 14 15  2  0  0  0
 15 16  1  0  0  0
 16 17  2  0  0  0
 17 18  1  0  0  0
 18 19  2  0  0  0
 19 20  1  0  0  0
 20 21  2  0  0  0
  5  6  1  0  0  0
  6  7  2  0  0  0
  6  8  1  0  0  0
  8  9  1  0  0  0
  9 10  1  0  0  0
 10 22  1  0  0  0
 22 23  2  0  0  0
 22 24  2  0  0  0
 22 25  1  0  0  0
 25 26  1  0  0  0
 26 27  1  0  0  0
 10 11  1  0  0  0
  8  2  1  0  0  0
 27 25  1  0  0  0
 21 12  1  0  0  0
 11  8  1  0  0  0
 21 16  1  0  0  0
M  END
> <minimizedAffinity>
-6.49306

> <CNNscore>
0.4381430745

> <CNNaffinity>
5.4617018700

> <CNN_VS>
2.3930068016

> <CNNaffinity_variance>
0.0959403738

$$$$



 27 31  0  0  0  0  0  0  0  0999 V2000
    4.8585    0.9655   17.3860 C   0  0  0  0  0  0  0  0  0  0  0  0
    5.1201    0.6662   18.8323 N   0  0  0  0  0  0  0  0  0  0  0  0
    6.3124   -0.0602   19.3808 C   0  0  0  0  0  0  0  0  0  0  0  0
    7.4524   -0.6148   18.5790 O   0  0  0  0  0  0  0  0  0  0  0  0
    6.1646   -0.1346   20.8716 N   0  0  0  0  0  0  0  0  0  0  0  0
    4.8809    0.5458   21.2445 C   0  0  0  0  0  0  0  0  0  0  0  0
    4.3379    0.7036   22.6339 O   0  0  0  0  0  0  0  0  0  0  0  0
    4.2353    1.0407   19.9842 C   0  0  0  0  0  0  0  0  0  0  0  0
    3.2104    1.5111   20.9732 C   0  0  0  0  0  0  0  0  0  0  0  0
    2.3945    2.0867   19.8539 N   0  0  0  0  0  0  0  0  0  0  0  0
    3.4195    1.6163   18.8648 C   0  0  0  0  0  0  0  0  0  0  0  0
    7.1307   -0.7767   21.8225 C   0  0  0  0  0  0  0  0  0  0  0  0
    8.3533   -0.0302   22.2674 C   0  0  0  0  0  0  0  0  0  0  0  0
    9.3195   -0.6723   23.2183 N   0  0  0  0  0  0  0  0  0  0  0  0
    9.0631   -2.0609   23.7243 C   0  0  0  0  0  0  0  0  0  0  0  0
    7.8405   -2.8075   23.2794 C   0  0  0  0  0  0  0  0  0  0  0  0
    7.5840   -4.1960   23.7854 C   0  0  0  0  0  0  0  0  0  0  0  0
    6.3615   -4.9425   23.3405 C   0  0  0  0  0  0  0  0  0  0  0  0
    5.3953   -4.3004   22.3896 C   0  0  0  0  0  0  0  0  0  0  0  0
    5.6517   -2.9118   21.8836 C   0  0  0  0  0  0  0  0  0  0  0  0
    6.8743   -2.1654   22.3285 C   0  0  0  0  0  0  0  0  0  0  0  0
    1.0928    2.8263   19.7616 S   0  0  0  0  0  0  0  0  0  0  0  0
    1.8251    4.0607   19.3255 O   0  0  0  0  0  0  0  0  0  0  0  0
    0.3604    1.5920   20.1977 O   0  0  0  0  0  0  0  0  0  0  0  0
   -0.2089    3.5660   19.6692 C   0  0  0  0  0  0  0  0  0  0  0  0
   -1.6224    3.7702   20.1277 C   0  0  0  0  0  0  0  0  0  0  0  0
   -1.0499    4.6431   19.0507 C   0  0  0  0  0  0  0  0  0  0  0  0
  1  2  1  0  0  0
  2  3  1  0  0  0
  3  4  2  0  0  0
  3  5  1  0  0  0
  5 12  1  0  0  0
 12 13  2  0  0  0
 13 14  1  0  0  0
 14 15  2  0  0  0
 15 16  1  0  0  0
 16 17  2  0  0  0
 17 18  1  0  0  0
 18 19  2  0  0  0
 19 20  1  0  0  0
 20 21  2  0  0  0
  5  6  1  0  0  0
  6  7  2  0  0  0
  6  8  1  0  0  0
  8  9  1  0  0  0
  9 10  1  0  0  0
 10 22  1  0  0  0
 22 23  2  0  0  0
 22 24  2  0  0  0
 22 25  1  0  0  0
 25 26  1  0  0  0
 26 27  1  0  0  0
 10 11  1  0  0  0
  8  2  1  0  0  0
 27 25  1  0  0  0
 21 12  1  0  0  0
 11  8  1  0  0  0
 21 16  1  0  0  0
M  END
> <minimizedAffinity>
-7.42576

> <CNNscore>
0.4352482259

> <CNNaffinity>
5.2754678726

> <CNN_VS>
2.2961380482

> <CNNaffinity_variance>
0.0881562680

$$$$



 27 31  0  0  0  0  0  0  0  0999 V2000
    7.4945   -4.5477   22.9360 C   0  0  0  0  0  0  0  0  0  0  0  0
    7.1600   -3.0863   22.8851 N   0  0  0  0  0  0  0  0  0  0  0  0
    5.9223   -2.4854   22.2876 C   0  0  0  0  0  0  0  0  0  0  0  0
    4.8018   -3.2404   21.6360 O   0  0  0  0  0  0  0  0  0  0  0  0
    6.0019   -0.9970   22.4559 N   0  0  0  0  0  0  0  0  0  0  0  0
    7.2887   -0.6780   23.1575 C   0  0  0  0  0  0  0  0  0  0  0  0
    7.7745    0.6917   23.5287 O   0  0  0  0  0  0  0  0  0  0  0  0
    8.0045   -1.9693   23.4228 C   0  0  0  0  0  0  0  0  0  0  0  0
    8.9992   -1.0216   24.0248 C   0  0  0  0  0  0  0  0  0  0  0  0
    9.8814   -2.1788   24.3887 N   0  0  0  0  0  0  0  0  0  0  0  0
    8.8867   -3.1265   23.7866 C   0  0  0  0  0  0  0  0  0  0  0  0
    4.9749   -0.0022   22.0023 C   0  0  0  0  0  0  0  0  0  0  0  0
    4.0341    0.6109   22.9968 C   0  0  0  0  0  0  0  0  0  0  0  0
    3.0071    1.6056   22.5432 N   0  0  0  0  0  0  0  0  0  0  0  0
    2.9209    1.9873   21.0952 C   0  0  0  0  0  0  0  0  0  0  0  0
    3.8617    1.3742   20.1006 C   0  0  0  0  0  0  0  0  0  0  0  0
    3.7755    1.7558   18.6526 C   0  0  0  0  0  0  0  0  0  0  0  0
    4.7162    1.1427   17.6581 C   0  0  0  0  0  0  0  0  0  0  0  0
    5.7432    0.1479   18.1117 C   0  0  0  0  0  0  0  0  0  0  0  0
    5.8295   -0.2337   19.5598 C   0  0  0  0  0  0  0  0  0  0  0  0
    4.8887    0.3794   20.5542 C   0  0  0  0  0  0  0  0  0  0  0  0
   11.2087   -2.3271   25.0717 S   0  0  0  0  0  0  0  0  0  0  0  0
   10.8921   -3.7617   25.3751 O   0  0  0  0  0  0  0  0  0  0  0  0
   11.5253   -0.8926   24.7683 O   0  0  0  0  0  0  0  0  0  0  0  0
   12.5359   -2.4756   25.7547 C   0  0  0  0  0  0  0  0  0  0  0  0
   13.9572   -2.0342   25.9416 C   0  0  0  0  0  0  0  0  0  0  0  0
   13.4133   -3.1741   26.7508 C   0  0  0  0  0  0  0  0  0  0  0  0
  1  2  1  0  0  0
  2  3  1  0  0  0
  3  4  2  0  0  0
  3  5  1  0  0  0
  5 12  1  0  0  0
 12 13  2  0  0  0
 13 14  1  0  0  0
 14 15  2  0  0  0
 15 16  1  0  0  0
 16 17  2  0  0  0
 17 18  1  0  0  0
 18 19  2  0  0  0
 19 20  1  0  0  0
 20 21  2  0  0  0
  5  6  1  0  0  0
  6  7  2  0  0  0
  6  8  1  0  0  0
  8  9  1  0  0  0
  9 10  1  0  0  0
 10 22  1  0  0  0
 22 23  2  0  0  0
 22 24  2  0  0  0
 22 25  1  0  0  0
 25 26  1  0  0  0
 26 27  1  0  0  0
 10 11  1  0  0  0
  8  2  1  0  0  0
 27 25  1  0  0  0
 21 12  1  0  0  0
 11  8  1  0  0  0
 21 16  1  0  0  0
M  END
> <minimizedAffinity>
-7.51221

> <CNNscore>
0.4009955227

> <CNNaffinity>
5.5273451805

> <CNN_VS>
2.2164406776

> <CNNaffinity_variance>
0.3089330792

$$$$
