


 30 33  0  0  0  0  0  0  0  0999 V2000
    7.6984   -1.5934   22.6612 N   0  0  0  0  0  0  0  0  0  0  0  0
    6.3303   -2.0568   22.2567 C   0  0  0  0  0  0  0  0  0  0  0  0
    6.0461   -3.5230   22.1165 O   0  0  0  0  0  0  0  0  0  0  0  0
    8.5513    2.8050   23.0818 C   0  0  0  0  0  0  0  0  0  0  0  0
    8.0840    2.0148   24.2681 C   0  0  0  0  0  0  0  0  0  0  0  0
    7.7997    0.5487   24.1279 C   0  0  0  0  0  0  0  0  0  0  0  0
    7.9827   -0.1273   22.8014 C   0  0  0  0  0  0  0  0  0  0  0  0
    8.4500    0.6629   21.6151 C   0  0  0  0  0  0  0  0  0  0  0  0
    8.7343    2.1290   21.7553 C   0  0  0  0  0  0  0  0  0  0  0  0
    7.7128    5.2313   23.4821 C   0  0  0  0  0  0  0  0  0  0  0  0
    8.8355    4.2711   23.2220 O   0  0  0  0  0  0  0  0  0  0  0  0
    8.7822   -2.5962   22.9255 C   0  0  0  0  0  0  0  0  0  0  0  0
   10.1841   -2.1330   23.1907 C   0  0  0  0  0  0  0  0  0  0  0  0
   10.9980   -1.5330   22.0826 C   0  0  0  0  0  0  0  0  0  0  0  0
   12.3998   -1.0699   22.3478 C   0  0  0  0  0  0  0  0  0  0  0  0
   12.9878   -1.2067   23.7210 C   0  0  0  0  0  0  0  0  0  0  0  0
   12.1739   -1.8067   24.8290 C   0  0  0  0  0  0  0  0  0  0  0  0
   12.7619   -1.9434   26.2021 Cl  0  0  0  0  0  0  0  0  0  0  0  0
   10.7721   -2.2698   24.5638 C   0  0  0  0  0  0  0  0  0  0  0  0
    5.2465   -1.0541   21.9924 C   0  0  0  0  0  0  0  0  0  0  0  0
    5.1008   -0.4494   20.6274 C   0  0  0  0  0  0  0  0  0  0  0  0
    5.8134   -1.0594   19.4569 C   0  0  0  0  0  0  0  0  0  0  0  0
    5.6677   -0.4547   18.0920 N   0  0  0  0  0  0  0  0  0  0  0  0
    4.8095    0.7601   17.8975 C   0  0  0  0  0  0  0  0  0  0  0  0
    4.0969    1.3701   19.0681 C   0  0  0  0  0  0  0  0  0  0  0  0
    3.2387    2.5849   18.8736 C   0  0  0  0  0  0  0  0  0  0  0  0
    2.5262    3.1949   20.0441 C   0  0  0  0  0  0  0  0  0  0  0  0
    2.6718    2.5902   21.4091 C   0  0  0  0  0  0  0  0  0  0  0  0
    3.5300    1.3755   21.6035 C   0  0  0  0  0  0  0  0  0  0  0  0
    4.2426    0.7654   20.4330 C   0  0  0  0  0  0  0  0  0  0  0  0
 10 11  1  0  0  0
 11  4  1  0  0  0
  4  5  2  0  0  0
  5  6  1  0  0  0
  6  7  2  0  0  0
  7  1  1  0  0  0
  1 12  1  0  0  0
 12 13  1  0  0  0
 13 14  2  0  0  0
 14 15  1  0  0  0
 15 16  2  0  0  0
 16 17  1  0  0  0
 17 18  1  0  0  0
 17 19  2  0  0  0
  1  2  1  0  0  0
  2  3  2  0  0  0
  2 20  1  0  0  0
 20 21  1  0  0  0
 21 22  2  0  0  0
 22 23  1  0  0  0
 23 24  2  0  0  0
 24 25  1  0  0  0
 25 26  2  0  0  0
 26 27  1  0  0  0
 27 28  2  0  0  0
 28 29  1  0  0  0
 29 30  2  0  0  0
  7  8  1  0  0  0
  8  9  2  0  0  0
  9  4  1  0  0  0
 19 13  1  0  0  0
 30 21  1  0  0  0
 30 25  1  0  0  0
M  END
> <minimizedAffinity>
-7.78447

> <CNNscore>
0.7370619178

> <CNNaffinity>
6.4981222153

> <CNN_VS>
4.7895183563

> <CNNaffinity_variance>
0.0693911165

$$$$



 30 33  0  0  0  0  0  0  0  0999 V2000
    8.0514   -0.6675   23.1760 N   0  0  0  0  0  0  0  0  0  0  0  0
    7.6522   -0.1042   21.8443 C   0  0  0  0  0  0  0  0  0  0  0  0
    8.2795    1.1649   21.3483 O   0  0  0  0  0  0  0  0  0  0  0  0
    6.1694   -4.4745   24.6641 C   0  0  0  0  0  0  0  0  0  0  0  0
    5.5421   -3.1512   24.9883 C   0  0  0  0  0  0  0  0  0  0  0  0
    6.1694   -1.8822   24.4923 C   0  0  0  0  0  0  0  0  0  0  0  0
    7.4241   -1.9365   23.6720 C   0  0  0  0  0  0  0  0  0  0  0  0
    8.0514   -3.2599   23.3477 C   0  0  0  0  0  0  0  0  0  0  0  0
    7.4240   -4.5289   23.8438 C   0  0  0  0  0  0  0  0  0  0  0  0
    5.9283   -7.0590   24.5513 C   0  0  0  0  0  0  0  0  0  0  0  0
    5.5421   -5.7435   25.1601 O   0  0  0  0  0  0  0  0  0  0  0  0
    9.0779    0.0383   24.0116 C   0  0  0  0  0  0  0  0  0  0  0  0
   10.4556   -0.5380   24.1521 C   0  0  0  0  0  0  0  0  0  0  0  0
   11.5316   -0.1546   23.1797 C   0  0  0  0  0  0  0  0  0  0  0  0
   12.9094   -0.7309   23.3202 C   0  0  0  0  0  0  0  0  0  0  0  0
   13.2112   -1.6905   24.4330 C   0  0  0  0  0  0  0  0  0  0  0  0
   12.1352   -2.0738   25.4052 C   0  0  0  0  0  0  0  0  0  0  0  0
   12.4370   -3.0333   26.5179 Cl  0  0  0  0  0  0  0  0  0  0  0  0
   10.7574   -1.4975   25.2648 C   0  0  0  0  0  0  0  0  0  0  0  0
    6.6257   -0.8098   21.0087 C   0  0  0  0  0  0  0  0  0  0  0  0
    5.9300   -0.0783   19.8992 C   0  0  0  0  0  0  0  0  0  0  0  0
    6.4548   -0.1679   18.4970 C   0  0  0  0  0  0  0  0  0  0  0  0
    5.7591    0.5636   17.3876 N   0  0  0  0  0  0  0  0  0  0  0  0
    4.5385    1.3848   17.6804 C   0  0  0  0  0  0  0  0  0  0  0  0
    4.0136    1.4744   19.0828 C   0  0  0  0  0  0  0  0  0  0  0  0
    2.7930    2.2956   19.3757 C   0  0  0  0  0  0  0  0  0  0  0  0
    2.2682    2.3852   20.7780 C   0  0  0  0  0  0  0  0  0  0  0  0
    2.9639    1.6537   21.8874 C   0  0  0  0  0  0  0  0  0  0  0  0
    4.1845    0.8325   21.5945 C   0  0  0  0  0  0  0  0  0  0  0  0
    4.7093    0.7429   20.1922 C   0  0  0  0  0  0  0  0  0  0  0  0
 10 11  1  0  0  0
 11  4  1  0  0  0
  4  5  2  0  0  0
  5  6  1  0  0  0
  6  7  2  0  0  0
  7  1  1  0  0  0
  1 12  1  0  0  0
 12 13  1  0  0  0
 13 14  2  0  0  0
 14 15  1  0  0  0
 15 16  2  0  0  0
 16 17  1  0  0  0
 17 18  1  0  0  0
 17 19  2  0  0  0
  1  2  1  0  0  0
  2  3  2  0  0  0
  2 20  1  0  0  0
 20 21  1  0  0  0
 21 22  2  0  0  0
 22 23  1  0  0  0
 23 24  2  0  0  0
 24 25  1  0  0  0
 25 26  2  0  0  0
 26 27  1  0  0  0
 27 28  2  0  0  0
 28 29  1  0  0  0
 29 30  2  0  0  0
  7  8  1  0  0  0
  8  9  2  0  0  0
  9  4  1  0  0  0
 19 13  1  0  0  0
 30 21  1  0  0  0
 30 25  1  0  0  0
M  END
> <minimizedAffinity>
-7.90822

> <CNNscore>
0.7281019688

> <CNNaffinity>
6.3771214485

> <CNN_VS>
4.6431946754

> <CNNaffinity_variance>
0.0529059060

$$$$



 30 33  0  0  0  0  0  0  0  0999 V2000
    7.7225   -1.0577   23.5261 N   0  0  0  0  0  0  0  0  0  0  0  0
    7.1088   -0.2626   22.4120 C   0  0  0  0  0  0  0  0  0  0  0  0
    7.4840    1.1775   22.2233 O   0  0  0  0  0  0  0  0  0  0  0  0
    6.5971   -5.3777   24.0925 C   0  0  0  0  0  0  0  0  0  0  0  0
    7.9039   -4.8673   24.6233 C   0  0  0  0  0  0  0  0  0  0  0  0
    8.2790   -3.4273   24.4345 C   0  0  0  0  0  0  0  0  0  0  0  0
    7.3473   -2.4977   23.7149 C   0  0  0  0  0  0  0  0  0  0  0  0
    6.0405   -3.0081   23.1841 C   0  0  0  0  0  0  0  0  0  0  0  0
    5.6654   -4.4481   23.3729 C   0  0  0  0  0  0  0  0  0  0  0  0
    4.9376   -7.1741   24.9696 C   0  0  0  0  0  0  0  0  0  0  0  0
    6.2219   -6.8177   24.2813 O   0  0  0  0  0  0  0  0  0  0  0  0
    8.7114   -0.4127   24.4515 C   0  0  0  0  0  0  0  0  0  0  0  0
   10.1623   -0.7861   24.3770 C   0  0  0  0  0  0  0  0  0  0  0  0
   10.9093   -1.1457   25.6271 C   0  0  0  0  0  0  0  0  0  0  0  0
   12.3602   -1.5191   25.5526 C   0  0  0  0  0  0  0  0  0  0  0  0
   13.0640   -1.5329   24.2280 C   0  0  0  0  0  0  0  0  0  0  0  0
   12.3170   -1.1733   22.9780 C   0  0  0  0  0  0  0  0  0  0  0  0
   13.0208   -1.1871   21.6534 Cl  0  0  0  0  0  0  0  0  0  0  0  0
   10.8661   -0.7999   23.0525 C   0  0  0  0  0  0  0  0  0  0  0  0
    6.1200   -0.9075   21.4867 C   0  0  0  0  0  0  0  0  0  0  0  0
    5.6875   -0.1974   20.2382 C   0  0  0  0  0  0  0  0  0  0  0  0
    6.4224   -0.4285   18.9512 C   0  0  0  0  0  0  0  0  0  0  0  0
    5.9899    0.2815   17.7026 N   0  0  0  0  0  0  0  0  0  0  0  0
    4.8226    1.2227   17.7412 C   0  0  0  0  0  0  0  0  0  0  0  0
    4.0877    1.4539   19.0283 C   0  0  0  0  0  0  0  0  0  0  0  0
    2.9204    2.3950   19.0668 C   0  0  0  0  0  0  0  0  0  0  0  0
    2.1855    2.6261   20.3538 C   0  0  0  0  0  0  0  0  0  0  0  0
    2.6180    1.9161   21.6024 C   0  0  0  0  0  0  0  0  0  0  0  0
    3.7853    0.9749   21.5638 C   0  0  0  0  0  0  0  0  0  0  0  0
    4.5201    0.7438   20.2768 C   0  0  0  0  0  0  0  0  0  0  0  0
 10 11  1  0  0  0
 11  4  1  0  0  0
  4  5  2  0  0  0
  5  6  1  0  0  0
  6  7  2  0  0  0
  7  1  1  0  0  0
  1 12  1  0  0  0
 12 13  1  0  0  0
 13 14  2  0  0  0
 14 15  1  0  0  0
 15 16  2  0  0  0
 16 17  1  0  0  0
 17 18  1  0  0  0
 17 19  2  0  0  0
  1  2  1  0  0  0
  2  3  2  0  0  0
  2 20  1  0  0  0
 20 21  1  0  0  0
 21 22  2  0  0  0
 22 23  1  0  0  0
 23 24  2  0  0  0
 24 25  1  0  0  0
 25 26  2  0  0  0
 26 27  1  0  0  0
 27 28  2  0  0  0
 28 29  1  0  0  0
 29 30  2  0  0  0
  7  8  1  0  0  0
  8  9  2  0  0  0
  9  4  1  0  0  0
 19 13  1  0  0  0
 30 21  1  0  0  0
 30 25  1  0  0  0
M  END
> <minimizedAffinity>
-8.06831

> <CNNscore>
0.7014024258

> <CNNaffinity>
6.5051145554

> <CNN_VS>
4.5627031326

> <CNNaffinity_variance>
0.0681270808

$$$$



 30 33  0  0  0  0  0  0  0  0999 V2000
   10.1908   -0.0621   22.3812 N   0  0  0  0  0  0  0  0  0  0  0  0
    8.8259   -0.6164   22.0990 C   0  0  0  0  0  0  0  0  0  0  0  0
    8.6428   -2.0911   21.8946 O   0  0  0  0  0  0  0  0  0  0  0  0
   10.7401    4.3620   22.9946 C   0  0  0  0  0  0  0  0  0  0  0  0
    9.3607    3.7728   22.9765 C   0  0  0  0  0  0  0  0  0  0  0  0
    9.1776    2.2982   22.7721 C   0  0  0  0  0  0  0  0  0  0  0  0
   10.3739    1.4126   22.5857 C   0  0  0  0  0  0  0  0  0  0  0  0
   11.7533    2.0017   22.6037 C   0  0  0  0  0  0  0  0  0  0  0  0
   11.9363    3.4764   22.8082 C   0  0  0  0  0  0  0  0  0  0  0  0
   11.4387    6.6908   22.0789 C   0  0  0  0  0  0  0  0  0  0  0  0
   10.9232    5.8366   23.1990 O   0  0  0  0  0  0  0  0  0  0  0  0
   11.3727   -0.9825   22.4589 C   0  0  0  0  0  0  0  0  0  0  0  0
   11.7591   -1.5978   23.7712 C   0  0  0  0  0  0  0  0  0  0  0  0
   13.0158   -1.1602   24.4637 C   0  0  0  0  0  0  0  0  0  0  0  0
   13.4022   -1.7754   25.7760 C   0  0  0  0  0  0  0  0  0  0  0  0
   12.5319   -2.8283   26.3958 C   0  0  0  0  0  0  0  0  0  0  0  0
   11.2753   -3.2659   25.7034 C   0  0  0  0  0  0  0  0  0  0  0  0
   10.4052   -4.3187   26.3232 Cl  0  0  0  0  0  0  0  0  0  0  0  0
   10.8889   -2.6506   24.3911 C   0  0  0  0  0  0  0  0  0  0  0  0
    7.6440    0.3040   22.0213 C   0  0  0  0  0  0  0  0  0  0  0  0
    6.8361    0.3824   20.7599 C   0  0  0  0  0  0  0  0  0  0  0  0
    7.1891   -0.4849   19.5881 C   0  0  0  0  0  0  0  0  0  0  0  0
    6.3812   -0.4065   18.3266 N   0  0  0  0  0  0  0  0  0  0  0  0
    5.2203    0.5391   18.2370 C   0  0  0  0  0  0  0  0  0  0  0  0
    4.8673    1.4064   19.4089 C   0  0  0  0  0  0  0  0  0  0  0  0
    3.7063    2.3520   19.3193 C   0  0  0  0  0  0  0  0  0  0  0  0
    3.3533    3.2192   20.4912 C   0  0  0  0  0  0  0  0  0  0  0  0
    4.1612    3.1409   21.7526 C   0  0  0  0  0  0  0  0  0  0  0  0
    5.3221    2.1953   21.8422 C   0  0  0  0  0  0  0  0  0  0  0  0
    5.6751    1.3280   20.6703 C   0  0  0  0  0  0  0  0  0  0  0  0
 10 11  1  0  0  0
 11  4  1  0  0  0
  4  5  2  0  0  0
  5  6  1  0  0  0
  6  7  2  0  0  0
  7  1  1  0  0  0
  1 12  1  0  0  0
 12 13  1  0  0  0
 13 14  2  0  0  0
 14 15  1  0  0  0
 15 16  2  0  0  0
 16 17  1  0  0  0
 17 18  1  0  0  0
 17 19  2  0  0  0
  1  2  1  0  0  0
  2  3  2  0  0  0
  2 20  1  0  0  0
 20 21  1  0  0  0
 21 22  2  0  0  0
 22 23  1  0  0  0
 23 24  2  0  0  0
 24 25  1  0  0  0
 25 26  2  0  0  0
 26 27  1  0  0  0
 27 28  2  0  0  0
 28 29  1  0  0  0
 29 30  2  0  0  0
  7  8  1  0  0  0
  8  9  2  0  0  0
  9  4  1  0  0  0
 19 13  1  0  0  0
 30 21  1  0  0  0
 30 25  1  0  0  0
M  END
> <minimizedAffinity>
-8.44703

> <CNNscore>
0.6598178148

> <CNNaffinity>
6.4746041298

> <CNN_VS>
4.2720589638

> <CNNaffinity_variance>
0.1113331169

$$$$



 30 33  0  0  0  0  0  0  0  0999 V2000
    8.9084   -0.9356   22.4592 N   0  0  0  0  0  0  0  0  0  0  0  0
    7.4760   -0.9061   22.0151 C   0  0  0  0  0  0  0  0  0  0  0  0
    6.7168   -2.1888   21.8455 O   0  0  0  0  0  0  0  0  0  0  0  0
   11.1859    2.9120   22.9680 C   0  0  0  0  0  0  0  0  0  0  0  0
    9.6987    2.9408   22.7744 C   0  0  0  0  0  0  0  0  0  0  0  0
    8.9395    1.6582   22.6048 C   0  0  0  0  0  0  0  0  0  0  0  0
    9.6676    0.3469   22.6288 C   0  0  0  0  0  0  0  0  0  0  0  0
   11.1547    0.3182   22.8224 C   0  0  0  0  0  0  0  0  0  0  0  0
   11.9139    1.6008   22.9920 C   0  0  0  0  0  0  0  0  0  0  0  0
   11.4257    5.4604   22.5228 C   0  0  0  0  0  0  0  0  0  0  0  0
   11.9450    4.1946   23.1376 O   0  0  0  0  0  0  0  0  0  0  0  0
    9.5817   -2.2476   22.7336 C   0  0  0  0  0  0  0  0  0  0  0  0
    9.8158   -2.6891   24.1480 C   0  0  0  0  0  0  0  0  0  0  0  0
    8.6587   -3.1174   25.0012 C   0  0  0  0  0  0  0  0  0  0  0  0
    8.8928   -3.5589   26.4155 C   0  0  0  0  0  0  0  0  0  0  0  0
   10.2839   -3.5721   26.9766 C   0  0  0  0  0  0  0  0  0  0  0  0
   11.4408   -3.1438   26.1234 C   0  0  0  0  0  0  0  0  0  0  0  0
   12.8318   -3.1570   26.6845 Cl  0  0  0  0  0  0  0  0  0  0  0  0
   11.2068   -2.7023   24.7091 C   0  0  0  0  0  0  0  0  0  0  0  0
    6.8026    0.4058   21.7407 C   0  0  0  0  0  0  0  0  0  0  0  0
    6.0959    0.6277   20.4364 C   0  0  0  0  0  0  0  0  0  0  0  0
    6.6486    0.0361   19.1737 C   0  0  0  0  0  0  0  0  0  0  0  0
    5.9419    0.2580   17.8694 N   0  0  0  0  0  0  0  0  0  0  0  0
    4.6824    1.0716   17.8277 C   0  0  0  0  0  0  0  0  0  0  0  0
    4.1296    1.6633   19.0904 C   0  0  0  0  0  0  0  0  0  0  0  0
    2.8701    2.4768   19.0488 C   0  0  0  0  0  0  0  0  0  0  0  0
    2.3174    3.0684   20.3115 C   0  0  0  0  0  0  0  0  0  0  0  0
    3.0241    2.8465   21.6158 C   0  0  0  0  0  0  0  0  0  0  0  0
    4.2836    2.0330   21.6574 C   0  0  0  0  0  0  0  0  0  0  0  0
    4.8363    1.4413   20.3948 C   0  0  0  0  0  0  0  0  0  0  0  0
 10 11  1  0  0  0
 11  4  1  0  0  0
  4  5  2  0  0  0
  5  6  1  0  0  0
  6  7  2  0  0  0
  7  1  1  0  0  0
  1 12  1  0  0  0
 12 13  1  0  0  0
 13 14  2  0  0  0
 14 15  1  0  0  0
 15 16  2  0  0  0
 16 17  1  0  0  0
 17 18  1  0  0  0
 17 19  2  0  0  0
  1  2  1  0  0  0
  2  3  2  0  0  0
  2 20  1  0  0  0
 20 21  1  0  0  0
 21 22  2  0  0  0
 22 23  1  0  0  0
 23 24  2  0  0  0
 24 25  1  0  0  0
 25 26  2  0  0  0
 26 27  1  0  0  0
 27 28  2  0  0  0
 28 29  1  0  0  0
 29 30  2  0  0  0
  7  8  1  0  0  0
  8  9  2  0  0  0
  9  4  1  0  0  0
 19 13  1  0  0  0
 30 21  1  0  0  0
 30 25  1  0  0  0
M  END
> <minimizedAffinity>
-8.36969

> <CNNscore>
0.6175754666

> <CNNaffinity>
6.4101891518

> <CNN_VS>
3.9587755203

> <CNNaffinity_variance>
0.0572336540

$$$$



 30 33  0  0  0  0  0  0  0  0999 V2000
    8.6648   -0.1695   22.5691 N   0  0  0  0  0  0  0  0  0  0  0  0
    9.4468   -1.4485   22.5180 C   0  0  0  0  0  0  0  0  0  0  0  0
    8.7316   -2.7597   22.3781 O   0  0  0  0  0  0  0  0  0  0  0  0
   10.8100    3.7640   22.9888 C   0  0  0  0  0  0  0  0  0  0  0  0
    9.3117    3.7298   22.9258 C   0  0  0  0  0  0  0  0  0  0  0  0
    8.5967    2.4187   22.7859 C   0  0  0  0  0  0  0  0  0  0  0  0
    9.3799    1.1417   22.7090 C   0  0  0  0  0  0  0  0  0  0  0  0
   10.8782    1.1758   22.7720 C   0  0  0  0  0  0  0  0  0  0  0  0
   11.5932    2.4871   22.9120 C   0  0  0  0  0  0  0  0  0  0  0  0
   10.8924    6.3333   22.6123 C   0  0  0  0  0  0  0  0  0  0  0  0
   11.5250    5.0751   23.1288 O   0  0  0  0  0  0  0  0  0  0  0  0
    7.1678   -0.2016   22.4802 C   0  0  0  0  0  0  0  0  0  0  0  0
    6.4874    0.0924   21.1761 C   0  0  0  0  0  0  0  0  0  0  0  0
    7.1483   -0.2852   19.8835 C   0  0  0  0  0  0  0  0  0  0  0  0
    6.4680    0.0087   18.5794 C   0  0  0  0  0  0  0  0  0  0  0  0
    5.1267    0.6803   18.5679 C   0  0  0  0  0  0  0  0  0  0  0  0
    4.4658    1.0578   19.8604 C   0  0  0  0  0  0  0  0  0  0  0  0
    3.1246    1.7294   19.8488 Cl  0  0  0  0  0  0  0  0  0  0  0  0
    5.1462    0.7639   21.1645 C   0  0  0  0  0  0  0  0  0  0  0  0
   10.9438   -1.4164   22.6069 C   0  0  0  0  0  0  0  0  0  0  0  0
   11.6348   -1.9601   23.8222 C   0  0  0  0  0  0  0  0  0  0  0  0
   13.1324   -1.9426   23.9041 C   0  0  0  0  0  0  0  0  0  0  0  0
   13.8234   -2.4862   25.1194 N   0  0  0  0  0  0  0  0  0  0  0  0
   13.0168   -3.0473   26.2528 C   0  0  0  0  0  0  0  0  0  0  0  0
   11.5191   -3.0647   26.1709 C   0  0  0  0  0  0  0  0  0  0  0  0
   10.7125   -3.6257   27.3043 C   0  0  0  0  0  0  0  0  0  0  0  0
    9.2149   -3.6432   27.2223 C   0  0  0  0  0  0  0  0  0  0  0  0
    8.5239   -3.0996   26.0070 C   0  0  0  0  0  0  0  0  0  0  0  0
    9.3305   -2.5385   24.8736 C   0  0  0  0  0  0  0  0  0  0  0  0
   10.8281   -2.5211   24.9556 C   0  0  0  0  0  0  0  0  0  0  0  0
 10 11  1  0  0  0
 11  4  1  0  0  0
  4  5  2  0  0  0
  5  6  1  0  0  0
  6  7  2  0  0  0
  7  1  1  0  0  0
  1 12  1  0  0  0
 12 13  1  0  0  0
 13 14  2  0  0  0
 14 15  1  0  0  0
 15 16  2  0  0  0
 16 17  1  0  0  0
 17 18  1  0  0  0
 17 19  2  0  0  0
  1  2  1  0  0  0
  2  3  2  0  0  0
  2 20  1  0  0  0
 20 21  1  0  0  0
 21 22  2  0  0  0
 22 23  1  0  0  0
 23 24  2  0  0  0
 24 25  1  0  0  0
 25 26  2  0  0  0
 26 27  1  0  0  0
 27 28  2  0  0  0
 28 29  1  0  0  0
 29 30  2  0  0  0
  7  8  1  0  0  0
  8  9  2  0  0  0
  9  4  1  0  0  0
 19 13  1  0  0  0
 30 21  1  0  0  0
 30 25  1  0  0  0
M  END
> <minimizedAffinity>
-8.12833

> <CNNscore>
0.5543770194

> <CNNaffinity>
6.4888496399

> <CNN_VS>
3.5972690582

> <CNNaffinity_variance>
0.1990833730

$$$$



 30 33  0  0  0  0  0  0  0  0999 V2000
    7.1130   -3.2400   22.6653 N   0  0  0  0  0  0  0  0  0  0  0  0
    6.1858   -2.4044   21.8333 C   0  0  0  0  0  0  0  0  0  0  0  0
    4.9964   -3.0359   21.1724 O   0  0  0  0  0  0  0  0  0  0  0  0
   10.6809   -1.3457   24.6481 C   0  0  0  0  0  0  0  0  0  0  0  0
    9.5131   -1.7943   25.4758 C   0  0  0  0  0  0  0  0  0  0  0  0
    8.3239   -2.4257   24.8149 C   0  0  0  0  0  0  0  0  0  0  0  0
    8.3023   -2.6086   23.3262 C   0  0  0  0  0  0  0  0  0  0  0  0
    9.4700   -2.1599   22.4985 C   0  0  0  0  0  0  0  0  0  0  0  0
   10.6593   -1.5285   23.1595 C   0  0  0  0  0  0  0  0  0  0  0  0
   13.1509   -1.4839   25.4420 C   0  0  0  0  0  0  0  0  0  0  0  0
   11.8702   -0.7143   25.3091 O   0  0  0  0  0  0  0  0  0  0  0  0
    6.8508   -4.7070   22.8363 C   0  0  0  0  0  0  0  0  0  0  0  0
    5.6422   -5.1694   23.5948 C   0  0  0  0  0  0  0  0  0  0  0  0
    5.5111   -4.8613   25.0570 C   0  0  0  0  0  0  0  0  0  0  0  0
    4.3024   -5.3238   25.8155 C   0  0  0  0  0  0  0  0  0  0  0  0
    3.2248   -6.0943   25.1117 C   0  0  0  0  0  0  0  0  0  0  0  0
    3.3560   -6.4024   23.6496 C   0  0  0  0  0  0  0  0  0  0  0  0
    2.2784   -7.1729   22.9460 Cl  0  0  0  0  0  0  0  0  0  0  0  0
    4.5646   -5.9400   22.8911 C   0  0  0  0  0  0  0  0  0  0  0  0
    6.4479   -0.9375   21.6623 C   0  0  0  0  0  0  0  0  0  0  0  0
    6.0227   -0.2414   20.4034 C   0  0  0  0  0  0  0  0  0  0  0  0
    6.7878   -0.4579   19.1316 C   0  0  0  0  0  0  0  0  0  0  0  0
    6.3626    0.2382   17.8727 N   0  0  0  0  0  0  0  0  0  0  0  0
    5.1723    1.1508   17.8857 C   0  0  0  0  0  0  0  0  0  0  0  0
    4.4071    1.3674   19.1576 C   0  0  0  0  0  0  0  0  0  0  0  0
    3.2168    2.2800   19.1706 C   0  0  0  0  0  0  0  0  0  0  0  0
    2.4517    2.4966   20.4425 C   0  0  0  0  0  0  0  0  0  0  0  0
    2.8769    1.8005   21.7013 C   0  0  0  0  0  0  0  0  0  0  0  0
    4.0672    0.8879   21.6883 C   0  0  0  0  0  0  0  0  0  0  0  0
    4.8323    0.6713   20.4165 C   0  0  0  0  0  0  0  0  0  0  0  0
 10 11  1  0  0  0
 11  4  1  0  0  0
  4  5  2  0  0  0
  5  6  1  0  0  0
  6  7  2  0  0  0
  7  1  1  0  0  0
  1 12  1  0  0  0
 12 13  1  0  0  0
 13 14  2  0  0  0
 14 15  1  0  0  0
 15 16  2  0  0  0
 16 17  1  0  0  0
 17 18  1  0  0  0
 17 19  2  0  0  0
  1  2  1  0  0  0
  2  3  2  0  0  0
  2 20  1  0  0  0
 20 21  1  0  0  0
 21 22  2  0  0  0
 22 23  1  0  0  0
 23 24  2  0  0  0
 24 25  1  0  0  0
 25 26  2  0  0  0
 26 27  1  0  0  0
 27 28  2  0  0  0
 28 29  1  0  0  0
 29 30  2  0  0  0
  7  8  1  0  0  0
  8  9  2  0  0  0
  9  4  1  0  0  0
 19 13  1  0  0  0
 30 21  1  0  0  0
 30 25  1  0  0  0
M  END
> <minimizedAffinity>
-7.43112

> <CNNscore>
0.5459268689

> <CNNaffinity>
6.1691255569

> <CNN_VS>
3.3678913116

> <CNNaffinity_variance>
0.0610125251

$$$$



 30 33  0  0  0  0  0  0  0  0999 V2000
    8.6394   -1.2994   22.8811 N   0  0  0  0  0  0  0  0  0  0  0  0
    8.2829   -0.0005   22.2212 C   0  0  0  0  0  0  0  0  0  0  0  0
    9.3622    0.8748   21.6562 O   0  0  0  0  0  0  0  0  0  0  0  0
    5.4017   -3.9251   24.5762 C   0  0  0  0  0  0  0  0  0  0  0  0
    5.8455   -2.7035   25.3250 C   0  0  0  0  0  0  0  0  0  0  0  0
    6.9247   -1.8283   24.7600 C   0  0  0  0  0  0  0  0  0  0  0  0
    7.5602   -2.1746   23.4461 C   0  0  0  0  0  0  0  0  0  0  0  0
    7.1164   -3.3962   22.6973 C   0  0  0  0  0  0  0  0  0  0  0  0
    6.0371   -4.2715   23.2624 C   0  0  0  0  0  0  0  0  0  0  0  0
    4.4168   -6.2910   25.0033 C   0  0  0  0  0  0  0  0  0  0  0  0
    4.3225   -4.8003   25.1412 O   0  0  0  0  0  0  0  0  0  0  0  0
   10.0752   -1.7232   22.9761 C   0  0  0  0  0  0  0  0  0  0  0  0
   10.5610   -2.4602   24.1888 C   0  0  0  0  0  0  0  0  0  0  0  0
    9.7063   -3.5234   24.8128 C   0  0  0  0  0  0  0  0  0  0  0  0
   10.1921   -4.2604   26.0255 C   0  0  0  0  0  0  0  0  0  0  0  0
   11.5326   -3.9343   26.6143 C   0  0  0  0  0  0  0  0  0  0  0  0
   12.3873   -2.8712   25.9904 C   0  0  0  0  0  0  0  0  0  0  0  0
   13.7278   -2.5451   26.5792 Cl  0  0  0  0  0  0  0  0  0  0  0  0
   11.9015   -2.1341   24.7777 C   0  0  0  0  0  0  0  0  0  0  0  0
    6.8471    0.4233   22.1262 C   0  0  0  0  0  0  0  0  0  0  0  0
    6.1820    0.5242   20.7855 C   0  0  0  0  0  0  0  0  0  0  0  0
    6.7025   -0.2752   19.6280 C   0  0  0  0  0  0  0  0  0  0  0  0
    6.0374   -0.1742   18.2873 N   0  0  0  0  0  0  0  0  0  0  0  0
    4.8518    0.7261   18.1041 C   0  0  0  0  0  0  0  0  0  0  0  0
    4.3312    1.5256   19.2617 C   0  0  0  0  0  0  0  0  0  0  0  0
    3.1456    2.4260   19.0786 C   0  0  0  0  0  0  0  0  0  0  0  0
    2.6251    3.2254   20.2361 C   0  0  0  0  0  0  0  0  0  0  0  0
    3.2902    3.1245   21.5768 C   0  0  0  0  0  0  0  0  0  0  0  0
    4.4758    2.2241   21.7599 C   0  0  0  0  0  0  0  0  0  0  0  0
    4.9963    1.4247   20.6024 C   0  0  0  0  0  0  0  0  0  0  0  0
 10 11  1  0  0  0
 11  4  1  0  0  0
  4  5  2  0  0  0
  5  6  1  0  0  0
  6  7  2  0  0  0
  7  1  1  0  0  0
  1 12  1  0  0  0
 12 13  1  0  0  0
 13 14  2  0  0  0
 14 15  1  0  0  0
 15 16  2  0  0  0
 16 17  1  0  0  0
 17 18  1  0  0  0
 17 19  2  0  0  0
  1  2  1  0  0  0
  2  3  2  0  0  0
  2 20  1  0  0  0
 20 21  1  0  0  0
 21 22  2  0  0  0
 22 23  1  0  0  0
 23 24  2  0  0  0
 24 25  1  0  0  0
 25 26  2  0  0  0
 26 27  1  0  0  0
 27 28  2  0  0  0
 28 29  1  0  0  0
 29 30  2  0  0  0
  7  8  1  0  0  0
  8  9  2  0  0  0
  9  4  1  0  0  0
 19 13  1  0  0  0
 30 21  1  0  0  0
 30 25  1  0  0  0
M  END
> <minimizedAffinity>
-7.50262

> <CNNscore>
0.5173416734

> <CNNaffinity>
6.2279014587

> <CNN_VS>
3.2219529152

> <CNNaffinity_variance>
0.0968355387

$$$$



 30 33  0  0  0  0  0  0  0  0999 V2000
    9.2107   -0.6415   23.0744 N   0  0  0  0  0  0  0  0  0  0  0  0
    7.7337   -0.5097   23.3003 C   0  0  0  0  0  0  0  0  0  0  0  0
    6.8857   -1.7377   23.4523 O   0  0  0  0  0  0  0  0  0  0  0  0
   11.7548    3.0422   22.6183 C   0  0  0  0  0  0  0  0  0  0  0  0
   12.4019    1.7041   22.8204 C   0  0  0  0  0  0  0  0  0  0  0  0
   11.5539    0.4762   22.9724 C   0  0  0  0  0  0  0  0  0  0  0  0
   10.0587    0.5864   22.9224 C   0  0  0  0  0  0  0  0  0  0  0  0
    9.4116    1.9245   22.7203 C   0  0  0  0  0  0  0  0  0  0  0  0
   10.2597    3.1524   22.5683 C   0  0  0  0  0  0  0  0  0  0  0  0
   11.9738    5.5707   22.0626 C   0  0  0  0  0  0  0  0  0  0  0  0
   12.6028    4.2701   22.4663 O   0  0  0  0  0  0  0  0  0  0  0  0
    9.8397   -2.0013   23.0005 C   0  0  0  0  0  0  0  0  0  0  0  0
   10.3479   -2.6614   24.2479 C   0  0  0  0  0  0  0  0  0  0  0  0
    9.4645   -3.6034   25.0111 C   0  0  0  0  0  0  0  0  0  0  0  0
    9.9726   -4.2635   26.2585 C   0  0  0  0  0  0  0  0  0  0  0  0
   11.3641   -3.9815   26.7429 C   0  0  0  0  0  0  0  0  0  0  0  0
   12.2473   -3.0394   25.9797 C   0  0  0  0  0  0  0  0  0  0  0  0
   13.6386   -2.7575   26.4641 Cl  0  0  0  0  0  0  0  0  0  0  0  0
   11.7392   -2.3794   24.7323 C   0  0  0  0  0  0  0  0  0  0  0  0
    7.1047    0.8500   23.3742 C   0  0  0  0  0  0  0  0  0  0  0  0
    5.7932    1.1077   22.6933 C   0  0  0  0  0  0  0  0  0  0  0  0
    4.6128    1.5758   23.4917 C   0  0  0  0  0  0  0  0  0  0  0  0
    3.3013    1.8335   22.8108 N   0  0  0  0  0  0  0  0  0  0  0  0
    3.1702    1.6230   21.3314 C   0  0  0  0  0  0  0  0  0  0  0  0
    4.3506    1.1548   20.5329 C   0  0  0  0  0  0  0  0  0  0  0  0
    4.2195    0.9443   19.0536 C   0  0  0  0  0  0  0  0  0  0  0  0
    5.3999    0.4762   18.2552 C   0  0  0  0  0  0  0  0  0  0  0  0
    6.7114    0.2185   18.9361 C   0  0  0  0  0  0  0  0  0  0  0  0
    6.8425    0.4290   20.4154 C   0  0  0  0  0  0  0  0  0  0  0  0
    5.6621    0.8972   21.2138 C   0  0  0  0  0  0  0  0  0  0  0  0
 10 11  1  0  0  0
 11  4  1  0  0  0
  4  5  2  0  0  0
  5  6  1  0  0  0
  6  7  2  0  0  0
  7  1  1  0  0  0
  1 12  1  0  0  0
 12 13  1  0  0  0
 13 14  2  0  0  0
 14 15  1  0  0  0
 15 16  2  0  0  0
 16 17  1  0  0  0
 17 18  1  0  0  0
 17 19  2  0  0  0
  1  2  1  0  0  0
  2  3  2  0  0  0
  2 20  1  0  0  0
 20 21  1  0  0  0
 21 22  2  0  0  0
 22 23  1  0  0  0
 23 24  2  0  0  0
 24 25  1  0  0  0
 25 26  2  0  0  0
 26 27  1  0  0  0
 27 28  2  0  0  0
 28 29  1  0  0  0
 29 30  2  0  0  0
  7  8  1  0  0  0
  8  9  2  0  0  0
  9  4  1  0  0  0
 19 13  1  0  0  0
 30 21  1  0  0  0
 30 25  1  0  0  0
M  END
> <minimizedAffinity>
-8.08959

> <CNNscore>
0.5029673576

> <CNNaffinity>
6.4291572571

> <CNN_VS>
3.2336561680

> <CNNaffinity_variance>
0.0653048009

$$$$
