


 22 25  0  0  0  0  0  0  0  0999 V2000
    8.5049    1.5556   21.1362 O   0  0  0  0  0  0  0  0  0  0  0  0
    8.0643    0.2449   21.7179 C   0  0  0  0  0  0  0  0  0  0  0  0
    8.9973   -0.5386   22.5930 N   0  0  0  0  0  0  0  0  0  0  0  0
    8.5568   -1.8492   23.1747 C   0  0  0  0  0  0  0  0  0  0  0  0
    9.4897   -2.6328   24.0497 C   0  0  0  0  0  0  0  0  0  0  0  0
   10.8631   -2.1058   24.3430 C   0  0  0  0  0  0  0  0  0  0  0  0
   11.9934   -2.6516   25.1643 S   0  0  0  0  0  0  0  0  0  0  0  0
   13.1324   -1.6784   25.0902 C   0  0  0  0  0  0  0  0  0  0  0  0
   12.7061   -0.5311   24.2231 C   0  0  0  0  0  0  0  0  0  0  0  0
   11.3036   -0.7952   23.7613 C   0  0  0  0  0  0  0  0  0  0  0  0
   10.3707   -0.0116   22.8863 C   0  0  0  0  0  0  0  0  0  0  0  0
    6.6910   -0.2820   21.4246 C   0  0  0  0  0  0  0  0  0  0  0  0
    5.9790    0.1357   20.1722 C   0  0  0  0  0  0  0  0  0  0  0  0
    6.3845   -0.4448   18.8498 C   0  0  0  0  0  0  0  0  0  0  0  0
    5.6725   -0.0271   17.5974 N   0  0  0  0  0  0  0  0  0  0  0  0
    4.5552    0.9712   17.6672 C   0  0  0  0  0  0  0  0  0  0  0  0
    4.1497    1.5518   18.9896 C   0  0  0  0  0  0  0  0  0  0  0  0
    3.0323    2.5500   19.0595 C   0  0  0  0  0  0  0  0  0  0  0  0
    2.6269    3.1305   20.3818 C   0  0  0  0  0  0  0  0  0  0  0  0
    3.3388    2.7128   21.6343 C   0  0  0  0  0  0  0  0  0  0  0  0
    4.4562    1.7145   21.5644 C   0  0  0  0  0  0  0  0  0  0  0  0
    4.8616    1.1340   20.2421 C   0  0  0  0  0  0  0  0  0  0  0  0
  1  2  2  0  0  0
  2 12  1  0  0  0
 12 13  1  0  0  0
 13 14  2  0  0  0
 14 15  1  0  0  0
 15 16  2  0  0  0
 16 17  1  0  0  0
 17 18  2  0  0  0
 18 19  1  0  0  0
 19 20  2  0  0  0
 20 21  1  0  0  0
 21 22  2  0  0  0
  2  3  1  0  0  0
  3  4  1  0  0  0
  4  5  1  0  0  0
  5  6  1  0  0  0
  6  7  1  0  0  0
  7  8  1  0  0  0
  8  9  2  0  0  0
  9 10  1  0  0  0
 10 11  1  0  0  0
 22 13  1  0  0  0
 11  3  1  0  0  0
 22 17  1  0  0  0
 10  6  2  0  0  0
M  END
> <minimizedAffinity>
-7.49638

> <CNNscore>
0.8094723225

> <CNNaffinity>
5.6324071884

> <CNN_VS>
4.5592775345

> <CNNaffinity_variance>
0.1476434171

$$$$



 22 25  0  0  0  0  0  0  0  0999 V2000
    8.3822    0.1216   21.1144 O   0  0  0  0  0  0  0  0  0  0  0  0
    7.5617   -0.9815   21.7145 C   0  0  0  0  0  0  0  0  0  0  0  0
    8.1452   -1.8510   22.7885 N   0  0  0  0  0  0  0  0  0  0  0  0
    7.3248   -2.9540   23.3887 C   0  0  0  0  0  0  0  0  0  0  0  0
    7.9083   -3.8236   24.4626 C   0  0  0  0  0  0  0  0  0  0  0  0
    9.3122   -3.5902   24.9364 C   0  0  0  0  0  0  0  0  0  0  0  0
   10.1500   -4.2803   25.9717 S   0  0  0  0  0  0  0  0  0  0  0  0
   11.4882   -3.6038   26.0114 C   0  0  0  0  0  0  0  0  0  0  0  0
   11.4775   -2.4955   25.0007 C   0  0  0  0  0  0  0  0  0  0  0  0
   10.1327   -2.4871   24.3363 C   0  0  0  0  0  0  0  0  0  0  0  0
    9.5492   -1.6175   23.2623 C   0  0  0  0  0  0  0  0  0  0  0  0
    6.1578   -1.2149   21.2408 C   0  0  0  0  0  0  0  0  0  0  0  0
    5.6274   -0.4530   20.0626 C   0  0  0  0  0  0  0  0  0  0  0  0
    6.0655   -0.8171   18.6750 C   0  0  0  0  0  0  0  0  0  0  0  0
    5.5351   -0.0552   17.4968 N   0  0  0  0  0  0  0  0  0  0  0  0
    4.5666    1.0709   17.7062 C   0  0  0  0  0  0  0  0  0  0  0  0
    4.1284    1.4350   19.0938 C   0  0  0  0  0  0  0  0  0  0  0  0
    3.1598    2.5611   19.3032 C   0  0  0  0  0  0  0  0  0  0  0  0
    2.7217    2.9252   20.6908 C   0  0  0  0  0  0  0  0  0  0  0  0
    3.2521    2.1633   21.8689 C   0  0  0  0  0  0  0  0  0  0  0  0
    4.2207    1.0372   21.6596 C   0  0  0  0  0  0  0  0  0  0  0  0
    4.6588    0.6731   20.2720 C   0  0  0  0  0  0  0  0  0  0  0  0
  1  2  2  0  0  0
  2 12  1  0  0  0
 12 13  1  0  0  0
 13 14  2  0  0  0
 14 15  1  0  0  0
 15 16  2  0  0  0
 16 17  1  0  0  0
 17 18  2  0  0  0
 18 19  1  0  0  0
 19 20  2  0  0  0
 20 21  1  0  0  0
 21 22  2  0  0  0
  2  3  1  0  0  0
  3  4  1  0  0  0
  4  5  1  0  0  0
  5  6  1  0  0  0
  6  7  1  0  0  0
  7  8  1  0  0  0
  8  9  2  0  0  0
  9 10  1  0  0  0
 10 11  1  0  0  0
 22 13  1  0  0  0
 11  3  1  0  0  0
 22 17  1  0  0  0
 10  6  2  0  0  0
M  END
> <minimizedAffinity>
-7.26699

> <CNNscore>
0.7397997379

> <CNNaffinity>
5.3169646263

> <CNN_VS>
3.9334890842

> <CNNaffinity_variance>
0.0743454546

$$$$



 22 25  0  0  0  0  0  0  0  0999 V2000
    6.5420   -1.9947   21.9725 O   0  0  0  0  0  0  0  0  0  0  0  0
    7.8064   -1.1883   21.9381 C   0  0  0  0  0  0  0  0  0  0  0  0
    8.9395   -1.5305   22.8595 N   0  0  0  0  0  0  0  0  0  0  0  0
   10.2038   -0.7241   22.8251 C   0  0  0  0  0  0  0  0  0  0  0  0
   11.3369   -1.0663   23.7465 C   0  0  0  0  0  0  0  0  0  0  0  0
   11.2057   -2.2149   24.7023 C   0  0  0  0  0  0  0  0  0  0  0  0
   12.1465   -2.7843   25.7224 S   0  0  0  0  0  0  0  0  0  0  0  0
   11.4637   -3.9426   26.3872 C   0  0  0  0  0  0  0  0  0  0  0  0
   10.1008   -4.0891   25.7780 C   0  0  0  0  0  0  0  0  0  0  0  0
    9.9414   -3.0213   24.7366 C   0  0  0  0  0  0  0  0  0  0  0  0
    8.8082   -2.6791   23.8153 C   0  0  0  0  0  0  0  0  0  0  0  0
    7.9376   -0.0397   20.9824 C   0  0  0  0  0  0  0  0  0  0  0  0
    6.8283    0.2656   20.0199 C   0  0  0  0  0  0  0  0  0  0  0  0
    6.7406   -0.4736   18.7177 C   0  0  0  0  0  0  0  0  0  0  0  0
    5.6313   -0.1684   17.7552 N   0  0  0  0  0  0  0  0  0  0  0  0
    4.6098    0.8762   18.0949 C   0  0  0  0  0  0  0  0  0  0  0  0
    4.6975    1.6155   19.3972 C   0  0  0  0  0  0  0  0  0  0  0  0
    3.6760    2.6600   19.7369 C   0  0  0  0  0  0  0  0  0  0  0  0
    3.7638    3.3993   21.0391 C   0  0  0  0  0  0  0  0  0  0  0  0
    4.8731    3.0940   22.0015 C   0  0  0  0  0  0  0  0  0  0  0  0
    5.8945    2.0495   21.6618 C   0  0  0  0  0  0  0  0  0  0  0  0
    5.8068    1.3102   20.3596 C   0  0  0  0  0  0  0  0  0  0  0  0
  1  2  2  0  0  0
  2 12  1  0  0  0
 12 13  1  0  0  0
 13 14  2  0  0  0
 14 15  1  0  0  0
 15 16  2  0  0  0
 16 17  1  0  0  0
 17 18  2  0  0  0
 18 19  1  0  0  0
 19 20  2  0  0  0
 20 21  1  0  0  0
 21 22  2  0  0  0
  2  3  1  0  0  0
  3  4  1  0  0  0
  4  5  1  0  0  0
  5  6  1  0  0  0
  6  7  1  0  0  0
  7  8  1  0  0  0
  8  9  2  0  0  0
  9 10  1  0  0  0
 10 11  1  0  0  0
 22 13  1  0  0  0
 11  3  1  0  0  0
 22 17  1  0  0  0
 10  6  2  0  0  0
M  END
> <minimizedAffinity>
-7.45461

> <CNNscore>
0.5934146047

> <CNNaffinity>
5.3154468536

> <CNN_VS>
3.1542637348

> <CNNaffinity_variance>
0.1336140335

$$$$



 22 25  0  0  0  0  0  0  0  0999 V2000
    6.6177   -3.2213   22.3092 O   0  0  0  0  0  0  0  0  0  0  0  0
    6.6672   -1.7236   22.2419 C   0  0  0  0  0  0  0  0  0  0  0  0
    7.9664   -1.0057   22.4580 N   0  0  0  0  0  0  0  0  0  0  0  0
    8.0159    0.4920   22.3907 C   0  0  0  0  0  0  0  0  0  0  0  0
    9.3151    1.2099   22.6068 C   0  0  0  0  0  0  0  0  0  0  0  0
   10.5647    0.4302   22.8903 C   0  0  0  0  0  0  0  0  0  0  0  0
   11.9796    0.8591   23.1438 S   0  0  0  0  0  0  0  0  0  0  0  0
   12.8045   -0.3736   23.3677 C   0  0  0  0  0  0  0  0  0  0  0  0
   11.8995   -1.5642   23.2527 C   0  0  0  0  0  0  0  0  0  0  0  0
   10.5153   -1.0675   22.9576 C   0  0  0  0  0  0  0  0  0  0  0  0
    9.2161   -1.7855   22.7414 C   0  0  0  0  0  0  0  0  0  0  0  0
    5.4175   -0.9439   21.9585 C   0  0  0  0  0  0  0  0  0  0  0  0
    5.1936   -0.3547   20.5973 C   0  0  0  0  0  0  0  0  0  0  0  0
    5.8954   -0.9337   19.4047 C   0  0  0  0  0  0  0  0  0  0  0  0
    5.6715   -0.3445   18.0436 N   0  0  0  0  0  0  0  0  0  0  0  0
    4.7458    0.8236   17.8750 C   0  0  0  0  0  0  0  0  0  0  0  0
    4.0439    1.4027   19.0676 C   0  0  0  0  0  0  0  0  0  0  0  0
    3.1182    2.5708   18.8991 C   0  0  0  0  0  0  0  0  0  0  0  0
    2.4164    3.1497   20.0916 C   0  0  0  0  0  0  0  0  0  0  0  0
    2.6403    2.5605   21.4528 C   0  0  0  0  0  0  0  0  0  0  0  0
    3.5660    1.3924   21.6214 C   0  0  0  0  0  0  0  0  0  0  0  0
    4.2678    0.8135   20.4288 C   0  0  0  0  0  0  0  0  0  0  0  0
  1  2  2  0  0  0
  2 12  1  0  0  0
 12 13  1  0  0  0
 13 14  2  0  0  0
 14 15  1  0  0  0
 15 16  2  0  0  0
 16 17  1  0  0  0
 17 18  2  0  0  0
 18 19  1  0  0  0
 19 20  2  0  0  0
 20 21  1  0  0  0
 21 22  2  0  0  0
  2  3  1  0  0  0
  3  4  1  0  0  0
  4  5  1  0  0  0
  5  6  1  0  0  0
  6  7  1  0  0  0
  7  8  1  0  0  0
  8  9  2  0  0  0
  9 10  1  0  0  0
 10 11  1  0  0  0
 22 13  1  0  0  0
 11  3  1  0  0  0
 22 17  1  0  0  0
 10  6  2  0  0  0
M  END
> <minimizedAffinity>
-6.99856

> <CNNscore>
0.5261902809

> <CNNaffinity>
5.3451623917

> <CNN_VS>
2.8125724792

> <CNNaffinity_variance>
0.1877036542

$$$$



 22 25  0  0  0  0  0  0  0  0999 V2000
    7.5308   -0.1333   22.8561 O   0  0  0  0  0  0  0  0  0  0  0  0
    9.0160    0.0411   22.7385 C   0  0  0  0  0  0  0  0  0  0  0  0
    9.6159    1.4151   22.7846 N   0  0  0  0  0  0  0  0  0  0  0  0
   11.1010    1.5895   22.6670 C   0  0  0  0  0  0  0  0  0  0  0  0
   11.7008    2.9636   22.7131 C   0  0  0  0  0  0  0  0  0  0  0  0
   10.8155    4.1633   22.8766 C   0  0  0  0  0  0  0  0  0  0  0  0
   11.1176    5.6304   22.9554 S   0  0  0  0  0  0  0  0  0  0  0  0
    9.8191    6.3629   23.1216 C   0  0  0  0  0  0  0  0  0  0  0  0
    8.7145    5.3484   23.1455 C   0  0  0  0  0  0  0  0  0  0  0  0
    9.3302    3.9890   22.9941 C   0  0  0  0  0  0  0  0  0  0  0  0
    8.7304    2.6149   22.9481 C   0  0  0  0  0  0  0  0  0  0  0  0
    9.9014   -1.1587   22.5750 C   0  0  0  0  0  0  0  0  0  0  0  0
    9.8919   -2.2445   23.6098 C   0  0  0  0  0  0  0  0  0  0  0  0
    8.7273   -3.1857   23.6987 C   0  0  0  0  0  0  0  0  0  0  0  0
    8.7178   -4.2715   24.7335 N   0  0  0  0  0  0  0  0  0  0  0  0
    9.8728   -4.4161   25.6795 C   0  0  0  0  0  0  0  0  0  0  0  0
   11.0375   -3.4749   25.5907 C   0  0  0  0  0  0  0  0  0  0  0  0
   12.1925   -3.6196   26.5367 C   0  0  0  0  0  0  0  0  0  0  0  0
   13.3571   -2.6784   26.4478 C   0  0  0  0  0  0  0  0  0  0  0  0
   13.3666   -1.5926   25.4129 C   0  0  0  0  0  0  0  0  0  0  0  0
   12.2116   -1.4480   24.4670 C   0  0  0  0  0  0  0  0  0  0  0  0
   11.0470   -2.3891   24.5558 C   0  0  0  0  0  0  0  0  0  0  0  0
  1  2  2  0  0  0
  2 12  1  0  0  0
 12 13  1  0  0  0
 13 14  2  0  0  0
 14 15  1  0  0  0
 15 16  2  0  0  0
 16 17  1  0  0  0
 17 18  2  0  0  0
 18 19  1  0  0  0
 19 20  2  0  0  0
 20 21  1  0  0  0
 21 22  2  0  0  0
  2  3  1  0  0  0
  3  4  1  0  0  0
  4  5  1  0  0  0
  5  6  1  0  0  0
  6  7  1  0  0  0
  7  8  1  0  0  0
  8  9  2  0  0  0
  9 10  1  0  0  0
 10 11  1  0  0  0
 22 13  1  0  0  0
 11  3  1  0  0  0
 22 17  1  0  0  0
 10  6  2  0  0  0
M  END
> <minimizedAffinity>
-7.12092

> <CNNscore>
0.5217204094

> <CNNaffinity>
5.4884729385

> <CNN_VS>
2.8634483814

> <CNNaffinity_variance>
0.0952411518

$$$$



 22 25  0  0  0  0  0  0  0  0999 V2000
    8.3467    0.4667   23.8143 O   0  0  0  0  0  0  0  0  0  0  0  0
    8.4669   -0.1990   22.4754 C   0  0  0  0  0  0  0  0  0  0  0  0
    7.4841    0.1203   21.3881 N   0  0  0  0  0  0  0  0  0  0  0  0
    7.6043   -0.5453   20.0493 C   0  0  0  0  0  0  0  0  0  0  0  0
    6.6214   -0.2259   18.9621 C   0  0  0  0  0  0  0  0  0  0  0  0
    5.5185    0.7590   19.2136 C   0  0  0  0  0  0  0  0  0  0  0  0
    4.4103    1.2695   18.3411 S   0  0  0  0  0  0  0  0  0  0  0  0
    3.6052    2.2506   19.1407 C   0  0  0  0  0  0  0  0  0  0  0  0
    4.2158    2.3465   20.5074 C   0  0  0  0  0  0  0  0  0  0  0  0
    5.3983    1.4246   20.5525 C   0  0  0  0  0  0  0  0  0  0  0  0
    6.3811    1.1053   21.6398 C   0  0  0  0  0  0  0  0  0  0  0  0
    9.5699   -1.1839   22.2238 C   0  0  0  0  0  0  0  0  0  0  0  0
   10.7420   -1.2521   23.1574 C   0  0  0  0  0  0  0  0  0  0  0  0
   11.8973   -0.3119   22.9806 C   0  0  0  0  0  0  0  0  0  0  0  0
   13.0693   -0.3801   23.9142 N   0  0  0  0  0  0  0  0  0  0  0  0
   13.0861   -1.3884   25.0246 C   0  0  0  0  0  0  0  0  0  0  0  0
   11.9307   -2.3286   25.2015 C   0  0  0  0  0  0  0  0  0  0  0  0
   11.9475   -3.3369   26.3118 C   0  0  0  0  0  0  0  0  0  0  0  0
   10.7921   -4.2770   26.4886 C   0  0  0  0  0  0  0  0  0  0  0  0
    9.6201   -4.2089   25.5550 C   0  0  0  0  0  0  0  0  0  0  0  0
    9.6033   -3.2006   24.4446 C   0  0  0  0  0  0  0  0  0  0  0  0
   10.7587   -2.2604   24.2678 C   0  0  0  0  0  0  0  0  0  0  0  0
  1  2  2  0  0  0
  2 12  1  0  0  0
 12 13  1  0  0  0
 13 14  2  0  0  0
 14 15  1  0  0  0
 15 16  2  0  0  0
 16 17  1  0  0  0
 17 18  2  0  0  0
 18 19  1  0  0  0
 19 20  2  0  0  0
 20 21  1  0  0  0
 21 22  2  0  0  0
  2  3  1  0  0  0
  3  4  1  0  0  0
  4  5  1  0  0  0
  5  6  1  0  0  0
  6  7  1  0  0  0
  7  8  1  0  0  0
  8  9  2  0  0  0
  9 10  1  0  0  0
 10 11  1  0  0  0
 22 13  1  0  0  0
 11  3  1  0  0  0
 22 17  1  0  0  0
 10  6  2  0  0  0
M  END
> <minimizedAffinity>
-7.85497

> <CNNscore>
0.4826169610

> <CNNaffinity>
5.2580199242

> <CNN_VS>
2.5376095772

> <CNNaffinity_variance>
0.1590698212

$$$$



 22 25  0  0  0  0  0  0  0  0999 V2000
    9.0019   -4.5688   24.5050 O   0  0  0  0  0  0  0  0  0  0  0  0
    8.3379   -3.7552   25.5762 C   0  0  0  0  0  0  0  0  0  0  0  0
    6.8761   -3.9374   25.8587 N   0  0  0  0  0  0  0  0  0  0  0  0
    6.2121   -3.1239   26.9298 C   0  0  0  0  0  0  0  0  0  0  0  0
    4.7503   -3.3061   27.2124 C   0  0  0  0  0  0  0  0  0  0  0  0
    3.9524   -4.3019   26.4238 C   0  0  0  0  0  0  0  0  0  0  0  0
    2.5065   -4.6973   26.4770 S   0  0  0  0  0  0  0  0  0  0  0  0
    2.2768   -5.7553   25.4387 C   0  0  0  0  0  0  0  0  0  0  0  0
    3.5808   -6.0137   24.7439 C   0  0  0  0  0  0  0  0  0  0  0  0
    4.6164   -5.1155   25.3527 C   0  0  0  0  0  0  0  0  0  0  0  0
    6.0782   -4.9332   25.0701 C   0  0  0  0  0  0  0  0  0  0  0  0
    9.1358   -2.7594   26.3647 C   0  0  0  0  0  0  0  0  0  0  0  0
   10.5679   -2.4934   26.0065 C   0  0  0  0  0  0  0  0  0  0  0  0
   11.6588   -3.3303   26.6058 C   0  0  0  0  0  0  0  0  0  0  0  0
   13.0909   -3.0643   26.2475 N   0  0  0  0  0  0  0  0  0  0  0  0
   13.4320   -1.9613   25.2899 C   0  0  0  0  0  0  0  0  0  0  0  0
   12.3411   -1.1243   24.6906 C   0  0  0  0  0  0  0  0  0  0  0  0
   12.6822   -0.0213   23.7330 C   0  0  0  0  0  0  0  0  0  0  0  0
   11.5912    0.8156   23.1336 C   0  0  0  0  0  0  0  0  0  0  0  0
   10.1591    0.5496   23.4919 C   0  0  0  0  0  0  0  0  0  0  0  0
    9.8180   -0.5534   24.4495 C   0  0  0  0  0  0  0  0  0  0  0  0
   10.9090   -1.3903   25.0488 C   0  0  0  0  0  0  0  0  0  0  0  0
  1  2  2  0  0  0
  2 12  1  0  0  0
 12 13  1  0  0  0
 13 14  2  0  0  0
 14 15  1  0  0  0
 15 16  2  0  0  0
 16 17  1  0  0  0
 17 18  2  0  0  0
 18 19  1  0  0  0
 19 20  2  0  0  0
 20 21  1  0  0  0
 21 22  2  0  0  0
  2  3  1  0  0  0
  3  4  1  0  0  0
  4  5  1  0  0  0
  5  6  1  0  0  0
  6  7  1  0  0  0
  7  8  1  0  0  0
  8  9  2  0  0  0
  9 10  1  0  0  0
 10 11  1  0  0  0
 22 13  1  0  0  0
 11  3  1  0  0  0
 22 17  1  0  0  0
 10  6  2  0  0  0
M  END
> <minimizedAffinity>
-6.57310

> <CNNscore>
0.4802026451

> <CNNaffinity>
5.4614105225

> <CNN_VS>
2.6225838661

> <CNNaffinity_variance>
0.3636745811

$$$$



 22 25  0  0  0  0  0  0  0  0999 V2000
    8.9394    0.2107   21.5478 O   0  0  0  0  0  0  0  0  0  0  0  0
    8.4424   -0.9801   22.3129 C   0  0  0  0  0  0  0  0  0  0  0  0
    9.3276   -1.6435   23.3259 N   0  0  0  0  0  0  0  0  0  0  0  0
    8.8307   -2.8341   24.0909 C   0  0  0  0  0  0  0  0  0  0  0  0
    9.7160   -3.4976   25.1039 C   0  0  0  0  0  0  0  0  0  0  0  0
   11.0982   -2.9703   25.3519 C   0  0  0  0  0  0  0  0  0  0  0  0
   12.1897   -3.4130   26.2806 S   0  0  0  0  0  0  0  0  0  0  0  0
   13.3612   -2.4959   26.0896 C   0  0  0  0  0  0  0  0  0  0  0  0
   12.9938   -1.4864   25.0427 C   0  0  0  0  0  0  0  0  0  0  0  0
   11.5952   -1.7796   24.5868 C   0  0  0  0  0  0  0  0  0  0  0  0
   10.7099   -1.1162   23.5738 C   0  0  0  0  0  0  0  0  0  0  0  0
    7.0602   -1.5073   22.0650 C   0  0  0  0  0  0  0  0  0  0  0  0
    5.8967   -0.5624   22.0042 C   0  0  0  0  0  0  0  0  0  0  0  0
    5.1725   -0.1827   23.2617 C   0  0  0  0  0  0  0  0  0  0  0  0
    4.0091    0.7622   23.2009 N   0  0  0  0  0  0  0  0  0  0  0  0
    3.5699    1.3272   21.8827 C   0  0  0  0  0  0  0  0  0  0  0  0
    4.2941    0.9475   20.6252 C   0  0  0  0  0  0  0  0  0  0  0  0
    3.8548    1.5126   19.3070 C   0  0  0  0  0  0  0  0  0  0  0  0
    4.5790    1.1328   18.0495 C   0  0  0  0  0  0  0  0  0  0  0  0
    5.7425    0.1879   18.1102 C   0  0  0  0  0  0  0  0  0  0  0  0
    6.1817   -0.3771   19.4284 C   0  0  0  0  0  0  0  0  0  0  0  0
    5.4575    0.0026   20.6859 C   0  0  0  0  0  0  0  0  0  0  0  0
  1  2  2  0  0  0
  2 12  1  0  0  0
 12 13  1  0  0  0
 13 14  2  0  0  0
 14 15  1  0  0  0
 15 16  2  0  0  0
 16 17  1  0  0  0
 17 18  2  0  0  0
 18 19  1  0  0  0
 19 20  2  0  0  0
 20 21  1  0  0  0
 21 22  2  0  0  0
  2  3  1  0  0  0
  3  4  1  0  0  0
  4  5  1  0  0  0
  5  6  1  0  0  0
  6  7  1  0  0  0
  7  8  1  0  0  0
  8  9  2  0  0  0
  9 10  1  0  0  0
 10 11  1  0  0  0
 22 13  1  0  0  0
 11  3  1  0  0  0
 22 17  1  0  0  0
 10  6  2  0  0  0
M  END
> <minimizedAffinity>
-7.21055

> <CNNscore>
0.4317057133

> <CNNaffinity>
5.1149911880

> <CNN_VS>
2.2081708908

> <CNNaffinity_variance>
0.1754053533

$$$$



 22 25  0  0  0  0  0  0  0  0999 V2000
    7.2175   -1.8994   22.6375 O   0  0  0  0  0  0  0  0  0  0  0  0
    8.4011   -0.9899   22.4898 C   0  0  0  0  0  0  0  0  0  0  0  0
    8.2576    0.4781   22.7628 N   0  0  0  0  0  0  0  0  0  0  0  0
    9.4412    1.3876   22.6151 C   0  0  0  0  0  0  0  0  0  0  0  0
    9.2976    2.8556   22.8881 C   0  0  0  0  0  0  0  0  0  0  0  0
    7.9705    3.4140   23.3087 C   0  0  0  0  0  0  0  0  0  0  0  0
    7.5287    4.8077   23.6438 S   0  0  0  0  0  0  0  0  0  0  0  0
    6.0720    4.7595   23.9987 C   0  0  0  0  0  0  0  0  0  0  0  0
    5.6136    3.3360   23.8828 C   0  0  0  0  0  0  0  0  0  0  0  0
    6.7869    2.5044   23.4563 C   0  0  0  0  0  0  0  0  0  0  0  0
    6.9304    1.0365   23.1834 C   0  0  0  0  0  0  0  0  0  0  0  0
    9.7282   -1.5483   22.0693 C   0  0  0  0  0  0  0  0  0  0  0  0
   10.8758   -1.5633   23.0352 C   0  0  0  0  0  0  0  0  0  0  0  0
   12.0733   -0.6937   22.7907 C   0  0  0  0  0  0  0  0  0  0  0  0
   13.2208   -0.7087   23.7566 N   0  0  0  0  0  0  0  0  0  0  0  0
   13.1708   -1.5932   24.9670 C   0  0  0  0  0  0  0  0  0  0  0  0
   11.9732   -2.4628   25.2115 C   0  0  0  0  0  0  0  0  0  0  0  0
   11.9232   -3.3473   26.4219 C   0  0  0  0  0  0  0  0  0  0  0  0
   10.7257   -4.2169   26.6664 C   0  0  0  0  0  0  0  0  0  0  0  0
    9.5782   -4.2019   25.7005 C   0  0  0  0  0  0  0  0  0  0  0  0
    9.6282   -3.3174   24.4901 C   0  0  0  0  0  0  0  0  0  0  0  0
   10.8257   -2.4478   24.2456 C   0  0  0  0  0  0  0  0  0  0  0  0
  1  2  2  0  0  0
  2 12  1  0  0  0
 12 13  1  0  0  0
 13 14  2  0  0  0
 14 15  1  0  0  0
 15 16  2  0  0  0
 16 17  1  0  0  0
 17 18  2  0  0  0
 18 19  1  0  0  0
 19 20  2  0  0  0
 20 21  1  0  0  0
 21 22  2  0  0  0
  2  3  1  0  0  0
  3  4  1  0  0  0
  4  5  1  0  0  0
  5  6  1  0  0  0
  6  7  1  0  0  0
  7  8  1  0  0  0
  8  9  2  0  0  0
  9 10  1  0  0  0
 10 11  1  0  0  0
 22 13  1  0  0  0
 11  3  1  0  0  0
 22 17  1  0  0  0
 10  6  2  0  0  0
M  END
> <minimizedAffinity>
-6.75048

> <CNNscore>
0.4271220267

> <CNNaffinity>
5.4739837646

> <CNN_VS>
2.3380589485

> <CNNaffinity_variance>
0.1614627838

$$$$
