


 35 40  0  0  0  0  0  0  0  0999 V2000
   -7.2781   -0.2952  -21.3417 C   0  0  0  0  0  0  0  0  0  0  0  0
   -8.5133   -0.3523  -22.1909 C   0  0  0  0  0  0  0  0  0  0  0  0
   -9.2465    0.9562  -22.2050 C   0  0  0  0  0  0  0  0  0  0  0  0
  -10.4583    0.7991  -23.0750 N   0  0  0  0  0  0  0  0  0  0  0  0
  -10.4740   -0.6065  -23.5986 C   0  0  0  0  0  0  0  0  0  0  0  0
  -11.5099   -1.1967  -24.5088 O   0  0  0  0  0  0  0  0  0  0  0  0
   -9.2719   -1.3181  -23.0522 C   0  0  0  0  0  0  0  0  0  0  0  0
  -10.1327   -2.1676  -23.9395 C   0  0  0  0  0  0  0  0  0  0  0  0
   -9.7555   -3.5944  -24.2074 N   0  0  0  0  0  0  0  0  0  0  0  0
   -8.5175   -4.1719  -23.5879 C   0  0  0  0  0  0  0  0  0  0  0  0
   -8.1402   -5.5987  -23.8557 O   0  0  0  0  0  0  0  0  0  0  0  0
   -7.6566   -3.3224  -22.7005 C   0  0  0  0  0  0  0  0  0  0  0  0
   -6.4185   -3.8998  -22.0810 C   0  0  0  0  0  0  0  0  0  0  0  0
   -5.5577   -3.0504  -21.1937 C   0  0  0  0  0  0  0  0  0  0  0  0
   -5.9350   -1.6235  -20.9258 C   0  0  0  0  0  0  0  0  0  0  0  0
   -5.0741   -0.7741  -20.0384 F   0  0  0  0  0  0  0  0  0  0  0  0
   -7.1730   -1.0461  -21.5453 C   0  0  0  0  0  0  0  0  0  0  0  0
   -8.0338   -1.8955  -22.4327 C   0  0  0  0  0  0  0  0  0  0  0  0
  -11.4758    1.8611  -23.3697 C   0  0  0  0  0  0  0  0  0  0  0  0
  -12.9026    1.6703  -22.9484 C   0  0  0  0  0  0  0  0  0  0  0  0
  -13.9201    2.7323  -23.2431 N   0  0  0  0  0  0  0  0  0  0  0  0
  -13.5106    3.9852  -23.9591 C   0  0  0  0  0  0  0  0  0  0  0  0
  -12.0837    4.1760  -24.3804 C   0  0  0  0  0  0  0  0  0  0  0  0
  -11.6742    5.4289  -25.0965 C   0  0  0  0  0  0  0  0  0  0  0  0
  -10.2473    5.6197  -25.5178 C   0  0  0  0  0  0  0  0  0  0  0  0
   -9.2299    4.5576  -25.2231 C   0  0  0  0  0  0  0  0  0  0  0  0
   -9.6394    3.3048  -24.5070 C   0  0  0  0  0  0  0  0  0  0  0  0
  -11.0662    3.1140  -24.0857 C   0  0  0  0  0  0  0  0  0  0  0  0
  -10.6164   -4.4439  -25.0948 C   0  0  0  0  0  0  0  0  0  0  0  0
  -10.0170   -5.1323  -26.2850 C   0  0  0  0  0  0  0  0  0  0  0  0
   -9.3385   -4.4615  -27.4424 C   0  0  0  0  0  0  0  0  0  0  0  0
   -8.8931   -5.5270  -28.3996 N   0  0  0  0  0  0  0  0  0  0  0  0
   -9.2962   -6.8564  -27.8338 N   0  0  0  0  0  0  0  0  0  0  0  0
   -9.9909   -6.6125  -26.5269 C   0  0  0  0  0  0  0  0  0  0  0  0
   -9.1335   -7.7348  -28.2475 H   0  0  0  0  0  0  0  0  0  0  0  0
  2  1  1  0  0  0
  2  3  1  0  0  0
  3  4  1  0  0  0
  4 19  1  0  0  0
 19 20  2  0  0  0
 20 21  1  0  0  0
 21 22  2  0  0  0
 22 23  1  0  0  0
 23 24  2  0  0  0
 24 25  1  0  0  0
 25 26  2  0  0  0
 26 27  1  0  0  0
 27 28  2  0  0  0
  4  5  1  0  0  0
  5  6  2  0  0  0
  5  7  1  0  0  0
  7  8  1  0  0  0
  8  9  1  0  0  0
  9 29  1  0  0  0
 29 30  1  0  0  0
 30 31  1  0  0  0
 31 32  2  0  0  0
 32 33  1  0  0  0
 33 34  1  0  0  0
  9 10  1  0  0  0
 10 11  2  0  0  0
 10 12  1  0  0  0
 12 13  2  0  0  0
 13 14  1  0  0  0
 14 15  2  0  0  0
 15 16  1  0  0  0
 15 17  1  0  0  0
 17 18  2  0  0  0
  7  2  1  0  0  0
 34 30  2  0  0  0
 18 12  1  0  0  0
 28 19  1  0  0  0
 18  7  1  0  0  0
 28 23  1  0  0  0
 33 35  1  0  0  0
M  END
> <minimizedAffinity>
-9.56266

> <CNNscore>
0.6372155547

> <CNNaffinity>
6.3885698318

> <CNN_VS>
4.0708961487

> <CNNaffinity_variance>
0.3067819476

$$$$



 35 40  0  0  0  0  0  0  0  0999 V2000
   -5.9197   -5.4755  -22.8891 C   0  0  0  0  0  0  0  0  0  0  0  0
   -6.4336   -4.1316  -22.4651 C   0  0  0  0  0  0  0  0  0  0  0  0
   -5.5958   -3.5272  -21.3775 C   0  0  0  0  0  0  0  0  0  0  0  0
   -6.1859   -2.1941  -21.0245 N   0  0  0  0  0  0  0  0  0  0  0  0
   -7.3884   -1.9747  -21.8939 C   0  0  0  0  0  0  0  0  0  0  0  0
   -8.2811   -0.7693  -21.8760 O   0  0  0  0  0  0  0  0  0  0  0  0
   -7.5415   -3.1720  -22.7842 C   0  0  0  0  0  0  0  0  0  0  0  0
   -8.5889   -2.1188  -22.9929 C   0  0  0  0  0  0  0  0  0  0  0  0
   -9.6615   -2.3211  -24.0217 N   0  0  0  0  0  0  0  0  0  0  0  0
   -9.6868   -3.5767  -24.8419 C   0  0  0  0  0  0  0  0  0  0  0  0
  -10.7594   -3.7791  -25.8707 O   0  0  0  0  0  0  0  0  0  0  0  0
   -8.6394   -4.6301  -24.6333 C   0  0  0  0  0  0  0  0  0  0  0  0
   -8.6647   -5.8857  -25.4535 C   0  0  0  0  0  0  0  0  0  0  0  0
   -7.6173   -6.9390  -25.2448 C   0  0  0  0  0  0  0  0  0  0  0  0
   -6.5446   -6.7366  -24.2160 C   0  0  0  0  0  0  0  0  0  0  0  0
   -5.4972   -7.7900  -24.0074 F   0  0  0  0  0  0  0  0  0  0  0  0
   -6.5194   -5.4810  -23.3958 C   0  0  0  0  0  0  0  0  0  0  0  0
   -7.5667   -4.4277  -23.6045 C   0  0  0  0  0  0  0  0  0  0  0  0
   -5.6650   -1.2469  -19.9846 C   0  0  0  0  0  0  0  0  0  0  0  0
   -6.1521   -1.3451  -18.5694 C   0  0  0  0  0  0  0  0  0  0  0  0
   -5.6312   -0.3978  -17.5295 N   0  0  0  0  0  0  0  0  0  0  0  0
   -4.6232    0.6477  -17.9050 C   0  0  0  0  0  0  0  0  0  0  0  0
   -4.1362    0.7459  -19.3203 C   0  0  0  0  0  0  0  0  0  0  0  0
   -3.1282    1.7914  -19.6958 C   0  0  0  0  0  0  0  0  0  0  0  0
   -2.6412    1.8896  -21.1111 C   0  0  0  0  0  0  0  0  0  0  0  0
   -3.1621    0.9423  -22.1509 C   0  0  0  0  0  0  0  0  0  0  0  0
   -4.1701   -0.1032  -21.7754 C   0  0  0  0  0  0  0  0  0  0  0  0
   -4.6571   -0.2014  -20.3602 C   0  0  0  0  0  0  0  0  0  0  0  0
  -10.7089   -1.2678  -24.2304 C   0  0  0  0  0  0  0  0  0  0  0  0
  -12.0450   -1.3955  -23.5606 C   0  0  0  0  0  0  0  0  0  0  0  0
  -13.2204   -0.4846  -23.7569 C   0  0  0  0  0  0  0  0  0  0  0  0
  -14.3420   -0.9828  -22.8945 N   0  0  0  0  0  0  0  0  0  0  0  0
  -13.8598   -2.2016  -22.1651 N   0  0  0  0  0  0  0  0  0  0  0  0
  -12.4402   -2.4567  -22.5768 C   0  0  0  0  0  0  0  0  0  0  0  0
  -14.3832   -2.7396  -21.5281 H   0  0  0  0  0  0  0  0  0  0  0  0
  2  1  1  0  0  0
  2  3  1  0  0  0
  3  4  1  0  0  0
  4 19  1  0  0  0
 19 20  2  0  0  0
 20 21  1  0  0  0
 21 22  2  0  0  0
 22 23  1  0  0  0
 23 24  2  0  0  0
 24 25  1  0  0  0
 25 26  2  0  0  0
 26 27  1  0  0  0
 27 28  2  0  0  0
  4  5  1  0  0  0
  5  6  2  0  0  0
  5  7  1  0  0  0
  7  8  1  0  0  0
  8  9  1  0  0  0
  9 29  1  0  0  0
 29 30  1  0  0  0
 30 31  1  0  0  0
 31 32  2  0  0  0
 32 33  1  0  0  0
 33 34  1  0  0  0
  9 10  1  0  0  0
 10 11  2  0  0  0
 10 12  1  0  0  0
 12 13  2  0  0  0
 13 14  1  0  0  0
 14 15  2  0  0  0
 15 16  1  0  0  0
 15 17  1  0  0  0
 17 18  2  0  0  0
  7  2  1  0  0  0
 34 30  2  0  0  0
 18 12  1  0  0  0
 28 19  1  0  0  0
 18  7  1  0  0  0
 28 23  1  0  0  0
 33 35  1  0  0  0
M  END
> <minimizedAffinity>
-8.98995

> <CNNscore>
0.6369438767

> <CNNaffinity>
6.6404771805

> <CNN_VS>
4.2296113968

> <CNNaffinity_variance>
0.2483542413

$$$$



 35 40  0  0  0  0  0  0  0  0999 V2000
   -7.5624    3.9462  -25.0600 C   0  0  0  0  0  0  0  0  0  0  0  0
   -7.5078    2.7449  -24.1633 C   0  0  0  0  0  0  0  0  0  0  0  0
   -8.6575    1.8118  -24.4034 C   0  0  0  0  0  0  0  0  0  0  0  0
   -8.5150    0.6498  -23.4656 N   0  0  0  0  0  0  0  0  0  0  0  0
   -7.2772    0.8647  -22.6460 C   0  0  0  0  0  0  0  0  0  0  0  0
   -6.7538   -0.0540  -21.5820 O   0  0  0  0  0  0  0  0  0  0  0  0
   -6.6547    2.1595  -23.0772 C   0  0  0  0  0  0  0  0  0  0  0  0
   -5.9037    1.4549  -21.9866 C   0  0  0  0  0  0  0  0  0  0  0  0
   -4.6485    2.0584  -21.4295 N   0  0  0  0  0  0  0  0  0  0  0  0
   -4.1444    3.3665  -21.9631 C   0  0  0  0  0  0  0  0  0  0  0  0
   -2.8892    3.9700  -21.4060 O   0  0  0  0  0  0  0  0  0  0  0  0
   -4.8954    4.0712  -23.0538 C   0  0  0  0  0  0  0  0  0  0  0  0
   -4.3912    5.3792  -23.5873 C   0  0  0  0  0  0  0  0  0  0  0  0
   -5.1422    6.0838  -24.6780 C   0  0  0  0  0  0  0  0  0  0  0  0
   -6.3974    5.4803  -25.2350 C   0  0  0  0  0  0  0  0  0  0  0  0
   -7.1484    6.1849  -26.3257 F   0  0  0  0  0  0  0  0  0  0  0  0
   -6.9016    4.1722  -24.7015 C   0  0  0  0  0  0  0  0  0  0  0  0
   -6.1505    3.4677  -23.6109 C   0  0  0  0  0  0  0  0  0  0  0  0
   -9.4466   -0.5215  -23.3651 C   0  0  0  0  0  0  0  0  0  0  0  0
   -8.8957   -1.9155  -23.3102 C   0  0  0  0  0  0  0  0  0  0  0  0
   -9.8273   -3.0867  -23.2096 N   0  0  0  0  0  0  0  0  0  0  0  0
  -11.3100   -2.8639  -23.1640 C   0  0  0  0  0  0  0  0  0  0  0  0
  -11.8610   -1.4699  -23.2189 C   0  0  0  0  0  0  0  0  0  0  0  0
  -13.3437   -1.2471  -23.1733 C   0  0  0  0  0  0  0  0  0  0  0  0
  -13.8946    0.1470  -23.2282 C   0  0  0  0  0  0  0  0  0  0  0  0
  -12.9629    1.3182  -23.3287 C   0  0  0  0  0  0  0  0  0  0  0  0
  -11.4803    1.0954  -23.3744 C   0  0  0  0  0  0  0  0  0  0  0  0
  -10.9293   -0.2986  -23.3195 C   0  0  0  0  0  0  0  0  0  0  0  0
   -3.8975    1.3538  -20.3388 C   0  0  0  0  0  0  0  0  0  0  0  0
   -4.5666    0.2697  -19.5470 C   0  0  0  0  0  0  0  0  0  0  0  0
   -5.0622    0.3863  -18.1361 C   0  0  0  0  0  0  0  0  0  0  0  0
   -5.6595   -0.9327  -17.7441 N   0  0  0  0  0  0  0  0  0  0  0  0
   -5.5330   -1.8645  -18.9129 N   0  0  0  0  0  0  0  0  0  0  0  0
   -4.8575   -1.1213  -20.0271 C   0  0  0  0  0  0  0  0  0  0  0  0
   -5.8394   -2.7995  -18.9433 H   0  0  0  0  0  0  0  0  0  0  0  0
  2  1  1  0  0  0
  2  3  1  0  0  0
  3  4  1  0  0  0
  4 19  1  0  0  0
 19 20  2  0  0  0
 20 21  1  0  0  0
 21 22  2  0  0  0
 22 23  1  0  0  0
 23 24  2  0  0  0
 24 25  1  0  0  0
 25 26  2  0  0  0
 26 27  1  0  0  0
 27 28  2  0  0  0
  4  5  1  0  0  0
  5  6  2  0  0  0
  5  7  1  0  0  0
  7  8  1  0  0  0
  8  9  1  0  0  0
  9 29  1  0  0  0
 29 30  1  0  0  0
 30 31  1  0  0  0
 31 32  2  0  0  0
 32 33  1  0  0  0
 33 34  1  0  0  0
  9 10  1  0  0  0
 10 11  2  0  0  0
 10 12  1  0  0  0
 12 13  2  0  0  0
 13 14  1  0  0  0
 14 15  2  0  0  0
 15 16  1  0  0  0
 15 17  1  0  0  0
 17 18  2  0  0  0
  7  2  1  0  0  0
 34 30  2  0  0  0
 18 12  1  0  0  0
 28 19  1  0  0  0
 18  7  1  0  0  0
 28 23  1  0  0  0
 33 35  1  0  0  0
M  END
> <minimizedAffinity>
-8.10540

> <CNNscore>
0.5353052616

> <CNNaffinity>
6.1546263695

> <CNN_VS>
3.2946038246

> <CNNaffinity_variance>
0.2159844637

$$$$



 35 40  0  0  0  0  0  0  0  0999 V2000
   -5.8411    0.1892  -26.8934 C   0  0  0  0  0  0  0  0  0  0  0  0
   -6.5252    0.4622  -25.5867 C   0  0  0  0  0  0  0  0  0  0  0  0
   -8.0162    0.5299  -25.7364 C   0  0  0  0  0  0  0  0  0  0  0  0
   -8.6057    0.8049  -24.3848 N   0  0  0  0  0  0  0  0  0  0  0  0
   -7.4791    0.9071  -23.3998 C   0  0  0  0  0  0  0  0  0  0  0  0
   -7.6145    1.1742  -21.9300 O   0  0  0  0  0  0  0  0  0  0  0  0
   -6.1932    0.6953  -24.1426 C   0  0  0  0  0  0  0  0  0  0  0  0
   -6.0157    0.9425  -22.6738 C   0  0  0  0  0  0  0  0  0  0  0  0
   -4.6395    0.9606  -22.0772 N   0  0  0  0  0  0  0  0  0  0  0  0
   -3.4409    0.7316  -22.9495 C   0  0  0  0  0  0  0  0  0  0  0  0
   -2.0648    0.7497  -22.3529 O   0  0  0  0  0  0  0  0  0  0  0  0
   -3.6184    0.4844  -24.4183 C   0  0  0  0  0  0  0  0  0  0  0  0
   -2.4198    0.2553  -25.2905 C   0  0  0  0  0  0  0  0  0  0  0  0
   -2.5973    0.0082  -26.7593 C   0  0  0  0  0  0  0  0  0  0  0  0
   -3.9735   -0.0100  -27.3558 C   0  0  0  0  0  0  0  0  0  0  0  0
   -4.1510   -0.2572  -28.8247 F   0  0  0  0  0  0  0  0  0  0  0  0
   -5.1721    0.2191  -26.4836 C   0  0  0  0  0  0  0  0  0  0  0  0
   -4.9946    0.4662  -25.0149 C   0  0  0  0  0  0  0  0  0  0  0  0
  -10.0655    0.9518  -24.0729 C   0  0  0  0  0  0  0  0  0  0  0  0
  -10.7333    2.2867  -24.2207 C   0  0  0  0  0  0  0  0  0  0  0  0
  -12.1932    2.4336  -23.9088 N   0  0  0  0  0  0  0  0  0  0  0  0
  -12.9852    1.2456  -23.4492 C   0  0  0  0  0  0  0  0  0  0  0  0
  -12.3173   -0.0894  -23.3014 C   0  0  0  0  0  0  0  0  0  0  0  0
  -13.1094   -1.2775  -22.8417 C   0  0  0  0  0  0  0  0  0  0  0  0
  -12.4414   -2.6124  -22.6939 C   0  0  0  0  0  0  0  0  0  0  0  0
  -10.9816   -2.7592  -23.0058 C   0  0  0  0  0  0  0  0  0  0  0  0
  -10.1896   -1.5712  -23.4654 C   0  0  0  0  0  0  0  0  0  0  0  0
  -10.8575   -0.2363  -23.6132 C   0  0  0  0  0  0  0  0  0  0  0  0
   -4.4620    1.2078  -20.6084 C   0  0  0  0  0  0  0  0  0  0  0  0
   -4.8682    0.1583  -19.6167 C   0  0  0  0  0  0  0  0  0  0  0  0
   -5.0450    0.3609  -18.1410 C   0  0  0  0  0  0  0  0  0  0  0  0
   -5.4550   -0.9503  -17.5389 N   0  0  0  0  0  0  0  0  0  0  0  0
   -5.5317   -1.9634  -18.6425 N   0  0  0  0  0  0  0  0  0  0  0  0
   -5.1690   -1.2782  -19.9266 C   0  0  0  0  0  0  0  0  0  0  0  0
   -5.7770   -2.9115  -18.5417 H   0  0  0  0  0  0  0  0  0  0  0  0
  2  1  1  0  0  0
  2  3  1  0  0  0
  3  4  1  0  0  0
  4 19  1  0  0  0
 19 20  2  0  0  0
 20 21  1  0  0  0
 21 22  2  0  0  0
 22 23  1  0  0  0
 23 24  2  0  0  0
 24 25  1  0  0  0
 25 26  2  0  0  0
 26 27  1  0  0  0
 27 28  2  0  0  0
  4  5  1  0  0  0
  5  6  2  0  0  0
  5  7  1  0  0  0
  7  8  1  0  0  0
  8  9  1  0  0  0
  9 29  1  0  0  0
 29 30  1  0  0  0
 30 31  1  0  0  0
 31 32  2  0  0  0
 32 33  1  0  0  0
 33 34  1  0  0  0
  9 10  1  0  0  0
 10 11  2  0  0  0
 10 12  1  0  0  0
 12 13  2  0  0  0
 13 14  1  0  0  0
 14 15  2  0  0  0
 15 16  1  0  0  0
 15 17  1  0  0  0
 17 18  2  0  0  0
  7  2  1  0  0  0
 34 30  2  0  0  0
 18 12  1  0  0  0
 28 19  1  0  0  0
 18  7  1  0  0  0
 28 23  1  0  0  0
 33 35  1  0  0  0
M  END
> <minimizedAffinity>
-8.01484

> <CNNscore>
0.5351921320

> <CNNaffinity>
6.3413171768

> <CNN_VS>
3.3938231468

> <CNNaffinity_variance>
0.0030643097

$$$$



 35 40  0  0  0  0  0  0  0  0999 V2000
  -10.9658   -2.5986  -24.5093 C   0  0  0  0  0  0  0  0  0  0  0  0
  -10.5322   -1.3016  -23.8929 C   0  0  0  0  0  0  0  0  0  0  0  0
  -11.6033   -0.2547  -23.9749 C   0  0  0  0  0  0  0  0  0  0  0  0
  -11.0780    0.9969  -23.3366 N   0  0  0  0  0  0  0  0  0  0  0  0
   -9.6822    0.7235  -22.8601 C   0  0  0  0  0  0  0  0  0  0  0  0
   -8.7818    1.6994  -22.1622 O   0  0  0  0  0  0  0  0  0  0  0  0
   -9.3449   -0.6970  -23.2039 C   0  0  0  0  0  0  0  0  0  0  0  0
   -8.2415    0.0398  -22.5043 C   0  0  0  0  0  0  0  0  0  0  0  0
   -6.9446   -0.6543  -22.2106 N   0  0  0  0  0  0  0  0  0  0  0  0
   -6.7511   -2.0852  -22.6166 C   0  0  0  0  0  0  0  0  0  0  0  0
   -5.4542   -2.7793  -22.3230 O   0  0  0  0  0  0  0  0  0  0  0  0
   -7.8545   -2.8221  -23.3163 C   0  0  0  0  0  0  0  0  0  0  0  0
   -7.6610   -4.2531  -23.7223 C   0  0  0  0  0  0  0  0  0  0  0  0
   -8.7644   -4.9899  -24.4220 C   0  0  0  0  0  0  0  0  0  0  0  0
  -10.0613   -4.2958  -24.7156 C   0  0  0  0  0  0  0  0  0  0  0  0
  -11.1647   -5.0327  -25.4153 F   0  0  0  0  0  0  0  0  0  0  0  0
  -10.2548   -2.8649  -24.3096 C   0  0  0  0  0  0  0  0  0  0  0  0
   -9.1514   -2.1280  -23.6100 C   0  0  0  0  0  0  0  0  0  0  0  0
  -11.8184    2.2942  -23.1989 C   0  0  0  0  0  0  0  0  0  0  0  0
  -12.9187    2.4261  -22.1881 C   0  0  0  0  0  0  0  0  0  0  0  0
  -13.6591    3.7233  -22.0504 N   0  0  0  0  0  0  0  0  0  0  0  0
  -13.2992    4.8886  -22.9236 C   0  0  0  0  0  0  0  0  0  0  0  0
  -12.1988    4.7567  -23.9345 C   0  0  0  0  0  0  0  0  0  0  0  0
  -11.8389    5.9221  -24.8077 C   0  0  0  0  0  0  0  0  0  0  0  0
  -10.7385    5.7901  -25.8185 C   0  0  0  0  0  0  0  0  0  0  0  0
   -9.9981    4.4928  -25.9561 C   0  0  0  0  0  0  0  0  0  0  0  0
  -10.3581    3.3275  -25.0830 C   0  0  0  0  0  0  0  0  0  0  0  0
  -11.4584    3.4595  -24.0722 C   0  0  0  0  0  0  0  0  0  0  0  0
   -5.8411    0.0826  -21.5110 C   0  0  0  0  0  0  0  0  0  0  0  0
   -5.5884   -0.1548  -20.0516 C   0  0  0  0  0  0  0  0  0  0  0  0
   -6.2293   -1.2158  -19.2070 C   0  0  0  0  0  0  0  0  0  0  0  0
   -5.6873   -1.0897  -17.8141 N   0  0  0  0  0  0  0  0  0  0  0  0
   -4.7113    0.0493  -17.7978 N   0  0  0  0  0  0  0  0  0  0  0  0
   -4.6502    0.6271  -19.1807 C   0  0  0  0  0  0  0  0  0  0  0  0
   -4.2006    0.3626  -17.0166 H   0  0  0  0  0  0  0  0  0  0  0  0
  2  1  1  0  0  0
  2  3  1  0  0  0
  3  4  1  0  0  0
  4 19  1  0  0  0
 19 20  2  0  0  0
 20 21  1  0  0  0
 21 22  2  0  0  0
 22 23  1  0  0  0
 23 24  2  0  0  0
 24 25  1  0  0  0
 25 26  2  0  0  0
 26 27  1  0  0  0
 27 28  2  0  0  0
  4  5  1  0  0  0
  5  6  2  0  0  0
  5  7  1  0  0  0
  7  8  1  0  0  0
  8  9  1  0  0  0
  9 29  1  0  0  0
 29 30  1  0  0  0
 30 31  1  0  0  0
 31 32  2  0  0  0
 32 33  1  0  0  0
 33 34  1  0  0  0
  9 10  1  0  0  0
 10 11  2  0  0  0
 10 12  1  0  0  0
 12 13  2  0  0  0
 13 14  1  0  0  0
 14 15  2  0  0  0
 15 16  1  0  0  0
 15 17  1  0  0  0
 17 18  2  0  0  0
  7  2  1  0  0  0
 34 30  2  0  0  0
 18 12  1  0  0  0
 28 19  1  0  0  0
 18  7  1  0  0  0
 28 23  1  0  0  0
 33 35  1  0  0  0
M  END
> <minimizedAffinity>
-8.83510

> <CNNscore>
0.4902088642

> <CNNaffinity>
6.4626493454

> <CNN_VS>
3.1680479050

> <CNNaffinity_variance>
0.0699035376

$$$$



 35 40  0  0  0  0  0  0  0  0999 V2000
   -9.5645   -2.5030  -23.6852 C   0  0  0  0  0  0  0  0  0  0  0  0
   -8.3117   -2.7268  -22.8911 C   0  0  0  0  0  0  0  0  0  0  0  0
   -8.0375   -1.5966  -21.9438 C   0  0  0  0  0  0  0  0  0  0  0  0
   -6.7731   -1.9112  -21.2005 N   0  0  0  0  0  0  0  0  0  0  0  0
   -6.2660   -3.2359  -21.6886 C   0  0  0  0  0  0  0  0  0  0  0  0
   -5.0257   -3.9339  -21.2149 O   0  0  0  0  0  0  0  0  0  0  0  0
   -7.2169   -3.7400  -22.7334 C   0  0  0  0  0  0  0  0  0  0  0  0
   -6.0608   -4.6577  -22.4670 C   0  0  0  0  0  0  0  0  0  0  0  0
   -5.9383   -5.9483  -23.2216 N   0  0  0  0  0  0  0  0  0  0  0  0
   -6.9721   -6.3211  -24.2426 C   0  0  0  0  0  0  0  0  0  0  0  0
   -6.8496   -7.6117  -24.9972 O   0  0  0  0  0  0  0  0  0  0  0  0
   -8.1283   -5.4033  -24.5090 C   0  0  0  0  0  0  0  0  0  0  0  0
   -9.1620   -5.7762  -25.5299 C   0  0  0  0  0  0  0  0  0  0  0  0
  -10.3182   -4.8584  -25.7962 C   0  0  0  0  0  0  0  0  0  0  0  0
  -10.4406   -3.5678  -25.0416 C   0  0  0  0  0  0  0  0  0  0  0  0
  -11.5968   -2.6501  -25.3080 F   0  0  0  0  0  0  0  0  0  0  0  0
   -9.4069   -3.1950  -24.0207 C   0  0  0  0  0  0  0  0  0  0  0  0
   -8.2507   -4.1128  -23.7544 C   0  0  0  0  0  0  0  0  0  0  0  0
   -6.1290   -1.0521  -20.1532 C   0  0  0  0  0  0  0  0  0  0  0  0
   -6.6622   -1.0520  -18.7513 C   0  0  0  0  0  0  0  0  0  0  0  0
   -6.0180   -0.1928  -17.7039 N   0  0  0  0  0  0  0  0  0  0  0  0
   -4.8406    0.6662  -18.0586 C   0  0  0  0  0  0  0  0  0  0  0  0
   -4.3074    0.6660  -19.4607 C   0  0  0  0  0  0  0  0  0  0  0  0
   -3.1299    1.5251  -19.8153 C   0  0  0  0  0  0  0  0  0  0  0  0
   -2.5968    1.5249  -21.2174 C   0  0  0  0  0  0  0  0  0  0  0  0
   -3.2409    0.6657  -22.2646 C   0  0  0  0  0  0  0  0  0  0  0  0
   -4.4183   -0.1933  -21.9099 C   0  0  0  0  0  0  0  0  0  0  0  0
   -4.9516   -0.1931  -20.5080 C   0  0  0  0  0  0  0  0  0  0  0  0
   -4.7821   -6.8661  -22.9553 C   0  0  0  0  0  0  0  0  0  0  0  0
   -3.5257   -6.7443  -23.7656 C   0  0  0  0  0  0  0  0  0  0  0  0
   -3.4252   -6.2009  -25.1600 C   0  0  0  0  0  0  0  0  0  0  0  0
   -1.9866   -6.2652  -25.5800 N   0  0  0  0  0  0  0  0  0  0  0  0
   -1.1980   -6.8485  -24.4451 N   0  0  0  0  0  0  0  0  0  0  0  0
   -2.1493   -7.1445  -23.3237 C   0  0  0  0  0  0  0  0  0  0  0  0
   -0.2267   -7.0088  -24.4375 H   0  0  0  0  0  0  0  0  0  0  0  0
  2  1  1  0  0  0
  2  3  1  0  0  0
  3  4  1  0  0  0
  4 19  1  0  0  0
 19 20  2  0  0  0
 20 21  1  0  0  0
 21 22  2  0  0  0
 22 23  1  0  0  0
 23 24  2  0  0  0
 24 25  1  0  0  0
 25 26  2  0  0  0
 26 27  1  0  0  0
 27 28  2  0  0  0
  4  5  1  0  0  0
  5  6  2  0  0  0
  5  7  1  0  0  0
  7  8  1  0  0  0
  8  9  1  0  0  0
  9 29  1  0  0  0
 29 30  1  0  0  0
 30 31  1  0  0  0
 31 32  2  0  0  0
 32 33  1  0  0  0
 33 34  1  0  0  0
  9 10  1  0  0  0
 10 11  2  0  0  0
 10 12  1  0  0  0
 12 13  2  0  0  0
 13 14  1  0  0  0
 14 15  2  0  0  0
 15 16  1  0  0  0
 15 17  1  0  0  0
 17 18  2  0  0  0
  7  2  1  0  0  0
 34 30  2  0  0  0
 18 12  1  0  0  0
 28 19  1  0  0  0
 18  7  1  0  0  0
 28 23  1  0  0  0
 33 35  1  0  0  0
M  END
> <minimizedAffinity>
-8.43011

> <CNNscore>
0.4592580199

> <CNNaffinity>
6.4222893715

> <CNN_VS>
2.9494879246

> <CNNaffinity_variance>
0.0870523900

$$$$



 35 40  0  0  0  0  0  0  0  0999 V2000
   -5.8705    2.6652  -26.4679 C   0  0  0  0  0  0  0  0  0  0  0  0
   -6.5999    2.2785  -25.2155 C   0  0  0  0  0  0  0  0  0  0  0  0
   -8.0764    2.1443  -25.4438 C   0  0  0  0  0  0  0  0  0  0  0  0
   -8.7134    1.7577  -24.1420 N   0  0  0  0  0  0  0  0  0  0  0  0
   -7.6307    1.6529  -23.1092 C   0  0  0  0  0  0  0  0  0  0  0  0
   -7.8209    1.2899  -21.6662 O   0  0  0  0  0  0  0  0  0  0  0  0
   -6.3245    1.9747  -23.7726 C   0  0  0  0  0  0  0  0  0  0  0  0
   -6.2035    1.6476  -22.3137 C   0  0  0  0  0  0  0  0  0  0  0  0
   -4.8580    1.6630  -21.6507 N   0  0  0  0  0  0  0  0  0  0  0  0
   -3.6336    2.0055  -22.4466 C   0  0  0  0  0  0  0  0  0  0  0  0
   -2.2882    2.0209  -21.7836 O   0  0  0  0  0  0  0  0  0  0  0  0
   -3.7546    2.3327  -23.9055 C   0  0  0  0  0  0  0  0  0  0  0  0
   -2.5301    2.6752  -24.7014 C   0  0  0  0  0  0  0  0  0  0  0  0
   -2.6512    3.0023  -26.1602 C   0  0  0  0  0  0  0  0  0  0  0  0
   -3.9966    2.9869  -26.8232 C   0  0  0  0  0  0  0  0  0  0  0  0
   -4.1176    3.3141  -28.2821 F   0  0  0  0  0  0  0  0  0  0  0  0
   -5.2210    2.6444  -26.0274 C   0  0  0  0  0  0  0  0  0  0  0  0
   -5.1000    2.3173  -24.5685 C   0  0  0  0  0  0  0  0  0  0  0  0
  -10.1764    1.5180  -23.9132 C   0  0  0  0  0  0  0  0  0  0  0  0
  -10.6882    0.1195  -23.7343 C   0  0  0  0  0  0  0  0  0  0  0  0
  -12.1511   -0.1203  -23.5055 N   0  0  0  0  0  0  0  0  0  0  0  0
  -13.1022    1.0386  -23.4555 C   0  0  0  0  0  0  0  0  0  0  0  0
  -12.5903    2.4372  -23.6344 C   0  0  0  0  0  0  0  0  0  0  0  0
  -13.5414    3.5961  -23.5844 C   0  0  0  0  0  0  0  0  0  0  0  0
  -13.0295    4.9946  -23.7633 C   0  0  0  0  0  0  0  0  0  0  0  0
  -11.5666    5.2343  -23.9921 C   0  0  0  0  0  0  0  0  0  0  0  0
  -10.6155    4.0754  -24.0420 C   0  0  0  0  0  0  0  0  0  0  0  0
  -11.1274    2.6769  -23.8632 C   0  0  0  0  0  0  0  0  0  0  0  0
   -4.7371    1.3358  -20.1918 C   0  0  0  0  0  0  0  0  0  0  0  0
   -5.0813   -0.0390  -19.7004 C   0  0  0  0  0  0  0  0  0  0  0  0
   -5.6428   -0.3781  -18.3515 C   0  0  0  0  0  0  0  0  0  0  0  0
   -5.8331   -1.8647  -18.2890 N   0  0  0  0  0  0  0  0  0  0  0  0
   -5.3891   -2.4443  -19.5994 N   0  0  0  0  0  0  0  0  0  0  0  0
   -4.9245   -1.3159  -20.4717 C   0  0  0  0  0  0  0  0  0  0  0  0
   -5.4007   -3.3979  -19.8440 H   0  0  0  0  0  0  0  0  0  0  0  0
  2  1  1  0  0  0
  2  3  1  0  0  0
  3  4  1  0  0  0
  4 19  1  0  0  0
 19 20  2  0  0  0
 20 21  1  0  0  0
 21 22  2  0  0  0
 22 23  1  0  0  0
 23 24  2  0  0  0
 24 25  1  0  0  0
 25 26  2  0  0  0
 26 27  1  0  0  0
 27 28  2  0  0  0
  4  5  1  0  0  0
  5  6  2  0  0  0
  5  7  1  0  0  0
  7  8  1  0  0  0
  8  9  1  0  0  0
  9 29  1  0  0  0
 29 30  1  0  0  0
 30 31  1  0  0  0
 31 32  2  0  0  0
 32 33  1  0  0  0
 33 34  1  0  0  0
  9 10  1  0  0  0
 10 11  2  0  0  0
 10 12  1  0  0  0
 12 13  2  0  0  0
 13 14  1  0  0  0
 14 15  2  0  0  0
 15 16  1  0  0  0
 15 17  1  0  0  0
 17 18  2  0  0  0
  7  2  1  0  0  0
 34 30  2  0  0  0
 18 12  1  0  0  0
 28 19  1  0  0  0
 18  7  1  0  0  0
 28 23  1  0  0  0
 33 35  1  0  0  0
M  END
> <minimizedAffinity>
-7.68579

> <CNNscore>
0.3771232665

> <CNNaffinity>
5.8522977829

> <CNN_VS>
2.2070376873

> <CNNaffinity_variance>
0.1450555176

$$$$



 35 40  0  0  0  0  0  0  0  0999 V2000
   -8.3133   -4.3556  -25.2912 C   0  0  0  0  0  0  0  0  0  0  0  0
   -7.7837   -2.9773  -25.0266 C   0  0  0  0  0  0  0  0  0  0  0  0
   -8.2211   -1.9967  -26.0740 C   0  0  0  0  0  0  0  0  0  0  0  0
   -7.6450   -0.6567  -25.7238 N   0  0  0  0  0  0  0  0  0  0  0  0
   -6.8516   -0.8093  -24.4600 C   0  0  0  0  0  0  0  0  0  0  0  0
   -6.1037    0.2810  -23.7514 O   0  0  0  0  0  0  0  0  0  0  0  0
   -6.9373   -2.2435  -24.0290 C   0  0  0  0  0  0  0  0  0  0  0  0
   -6.1149   -1.3810  -23.1182 C   0  0  0  0  0  0  0  0  0  0  0  0
   -5.4679   -1.9767  -21.9031 N   0  0  0  0  0  0  0  0  0  0  0  0
   -5.6432   -3.4350  -21.5989 C   0  0  0  0  0  0  0  0  0  0  0  0
   -4.9962   -4.0307  -20.3838 O   0  0  0  0  0  0  0  0  0  0  0  0
   -6.4657   -4.2976  -22.5097 C   0  0  0  0  0  0  0  0  0  0  0  0
   -6.6411   -5.7559  -22.2054 C   0  0  0  0  0  0  0  0  0  0  0  0
   -7.4635   -6.6184  -23.1163 C   0  0  0  0  0  0  0  0  0  0  0  0
   -8.1105   -6.0226  -24.3313 C   0  0  0  0  0  0  0  0  0  0  0  0
   -8.9330   -6.8852  -25.2422 F   0  0  0  0  0  0  0  0  0  0  0  0
   -7.9352   -4.5644  -24.6356 C   0  0  0  0  0  0  0  0  0  0  0  0
   -7.1127   -3.7018  -23.7248 C   0  0  0  0  0  0  0  0  0  0  0  0
   -7.8298    0.6129  -26.5009 C   0  0  0  0  0  0  0  0  0  0  0  0
   -7.0931    0.8162  -27.7915 C   0  0  0  0  0  0  0  0  0  0  0  0
   -7.2779    2.0858  -28.5687 N   0  0  0  0  0  0  0  0  0  0  0  0
   -8.1995    3.1520  -28.0552 C   0  0  0  0  0  0  0  0  0  0  0  0
   -8.9362    2.9487  -26.7645 C   0  0  0  0  0  0  0  0  0  0  0  0
   -9.8579    4.0150  -26.2509 C   0  0  0  0  0  0  0  0  0  0  0  0
  -10.5946    3.8116  -24.9602 C   0  0  0  0  0  0  0  0  0  0  0  0
  -10.4097    2.5421  -24.1832 C   0  0  0  0  0  0  0  0  0  0  0  0
   -9.4881    1.4758  -24.6967 C   0  0  0  0  0  0  0  0  0  0  0  0
   -8.7514    1.6791  -25.9873 C   0  0  0  0  0  0  0  0  0  0  0  0
   -4.6454   -1.1141  -20.9923 C   0  0  0  0  0  0  0  0  0  0  0  0
   -5.2573   -0.5385  -19.7497 C   0  0  0  0  0  0  0  0  0  0  0  0
   -6.6582   -0.7721  -19.2671 C   0  0  0  0  0  0  0  0  0  0  0  0
   -6.8426   -0.0063  -17.9906 N   0  0  0  0  0  0  0  0  0  0  0  0
   -5.5555    0.7007  -17.6842 N   0  0  0  0  0  0  0  0  0  0  0  0
   -4.5758    0.3717  -18.7714 C   0  0  0  0  0  0  0  0  0  0  0  0
   -5.3840    1.2790  -16.9062 H   0  0  0  0  0  0  0  0  0  0  0  0
  2  1  1  0  0  0
  2  3  1  0  0  0
  3  4  1  0  0  0
  4 19  1  0  0  0
 19 20  2  0  0  0
 20 21  1  0  0  0
 21 22  2  0  0  0
 22 23  1  0  0  0
 23 24  2  0  0  0
 24 25  1  0  0  0
 25 26  2  0  0  0
 26 27  1  0  0  0
 27 28  2  0  0  0
  4  5  1  0  0  0
  5  6  2  0  0  0
  5  7  1  0  0  0
  7  8  1  0  0  0
  8  9  1  0  0  0
  9 29  1  0  0  0
 29 30  1  0  0  0
 30 31  1  0  0  0
 31 32  2  0  0  0
 32 33  1  0  0  0
 33 34  1  0  0  0
  9 10  1  0  0  0
 10 11  2  0  0  0
 10 12  1  0  0  0
 12 13  2  0  0  0
 13 14  1  0  0  0
 14 15  2  0  0  0
 15 16  1  0  0  0
 15 17  1  0  0  0
 17 18  2  0  0  0
  7  2  1  0  0  0
 34 30  2  0  0  0
 18 12  1  0  0  0
 28 19  1  0  0  0
 18  7  1  0  0  0
 28 23  1  0  0  0
 33 35  1  0  0  0
M  END
> <minimizedAffinity>
-7.38617

> <CNNscore>
0.2562837899

> <CNNaffinity>
6.0507583618

> <CNN_VS>
1.5507112741

> <CNNaffinity_variance>
0.0893030986

$$$$



 35 40  0  0  0  0  0  0  0  0999 V2000
   -2.0327   -0.4947  -26.3605 C   0  0  0  0  0  0  0  0  0  0  0  0
   -3.3554   -0.7178  -25.6891 C   0  0  0  0  0  0  0  0  0  0  0  0
   -4.2786   -1.5497  -26.5291 C   0  0  0  0  0  0  0  0  0  0  0  0
   -5.5660   -1.7159  -25.7773 N   0  0  0  0  0  0  0  0  0  0  0  0
   -5.4383   -0.9868  -24.4727 C   0  0  0  0  0  0  0  0  0  0  0  0
   -6.4919   -0.8914  -23.4093 O   0  0  0  0  0  0  0  0  0  0  0  0
   -4.0721   -0.3699  -24.4181 C   0  0  0  0  0  0  0  0  0  0  0  0
   -4.9107   -0.1036  -23.2033 C   0  0  0  0  0  0  0  0  0  0  0  0
   -4.3582    0.7171  -22.0758 N   0  0  0  0  0  0  0  0  0  0  0  0
   -2.9672    1.2714  -22.1631 C   0  0  0  0  0  0  0  0  0  0  0  0
   -2.4147    2.0920  -21.0356 O   0  0  0  0  0  0  0  0  0  0  0  0
   -2.1285    1.0051  -23.3780 C   0  0  0  0  0  0  0  0  0  0  0  0
   -0.7375    1.5594  -23.4652 C   0  0  0  0  0  0  0  0  0  0  0  0
    0.1011    1.2931  -24.6801 C   0  0  0  0  0  0  0  0  0  0  0  0
   -0.4514    0.4724  -25.8076 C   0  0  0  0  0  0  0  0  0  0  0  0
    0.3873    0.2061  -27.0224 F   0  0  0  0  0  0  0  0  0  0  0  0
   -1.8424   -0.0819  -25.7203 C   0  0  0  0  0  0  0  0  0  0  0  0
   -2.6810    0.1844  -24.5055 C   0  0  0  0  0  0  0  0  0  0  0  0
   -6.7696   -2.4776  -26.2476 C   0  0  0  0  0  0  0  0  0  0  0  0
   -7.6199   -1.9276  -27.3540 C   0  0  0  0  0  0  0  0  0  0  0  0
   -8.8236   -2.6893  -27.8243 N   0  0  0  0  0  0  0  0  0  0  0  0
   -9.1768   -4.0009  -27.1881 C   0  0  0  0  0  0  0  0  0  0  0  0
   -8.3263   -4.5509  -26.0816 C   0  0  0  0  0  0  0  0  0  0  0  0
   -8.6796   -5.8626  -25.4453 C   0  0  0  0  0  0  0  0  0  0  0  0
   -7.8291   -6.4125  -24.3388 C   0  0  0  0  0  0  0  0  0  0  0  0
   -6.6255   -5.6509  -23.8686 C   0  0  0  0  0  0  0  0  0  0  0  0
   -6.2724   -4.3392  -24.5049 C   0  0  0  0  0  0  0  0  0  0  0  0
   -7.1227   -3.7893  -25.6113 C   0  0  0  0  0  0  0  0  0  0  0  0
   -5.1969    0.9834  -20.8610 C   0  0  0  0  0  0  0  0  0  0  0  0
   -5.3142   -0.0578  -19.7876 C   0  0  0  0  0  0  0  0  0  0  0  0
   -5.2870    0.1932  -18.3090 C   0  0  0  0  0  0  0  0  0  0  0  0
   -5.4353   -1.1267  -17.6120 N   0  0  0  0  0  0  0  0  0  0  0  0
   -5.5540   -2.1935  -18.6598 N   0  0  0  0  0  0  0  0  0  0  0  0
   -5.4792   -1.5329  -20.0044 C   0  0  0  0  0  0  0  0  0  0  0  0
   -5.6621   -3.1579  -18.4940 H   0  0  0  0  0  0  0  0  0  0  0  0
  2  1  1  0  0  0
  2  3  1  0  0  0
  3  4  1  0  0  0
  4 19  1  0  0  0
 19 20  2  0  0  0
 20 21  1  0  0  0
 21 22  2  0  0  0
 22 23  1  0  0  0
 23 24  2  0  0  0
 24 25  1  0  0  0
 25 26  2  0  0  0
 26 27  1  0  0  0
 27 28  2  0  0  0
  4  5  1  0  0  0
  5  6  2  0  0  0
  5  7  1  0  0  0
  7  8  1  0  0  0
  8  9  1  0  0  0
  9 29  1  0  0  0
 29 30  1  0  0  0
 30 31  1  0  0  0
 31 32  2  0  0  0
 32 33  1  0  0  0
 33 34  1  0  0  0
  9 10  1  0  0  0
 10 11  2  0  0  0
 10 12  1  0  0  0
 12 13  2  0  0  0
 13 14  1  0  0  0
 14 15  2  0  0  0
 15 16  1  0  0  0
 15 17  1  0  0  0
 17 18  2  0  0  0
  7  2  1  0  0  0
 34 30  2  0  0  0
 18 12  1  0  0  0
 28 19  1  0  0  0
 18  7  1  0  0  0
 28 23  1  0  0  0
 33 35  1  0  0  0
M  END
> <minimizedAffinity>
-7.42041

> <CNNscore>
0.2452742010

> <CNNaffinity>
5.6186614037

> <CNN_VS>
1.3781126738

> <CNNaffinity_variance>
0.0710283294

$$$$
