


 31 35  0  0  0  0  0  0  0  0999 V2000
    9.0842   -0.9535   23.7052 C   0  0  0  0  0  0  0  0  0  0  0  0
    7.9327   -1.3444   22.8269 C   0  0  0  0  0  0  0  0  0  0  0  0
    7.5532   -0.2476   21.8766 C   0  0  0  0  0  0  0  0  0  0  0  0
    6.4007   -0.7311   21.0472 N   0  0  0  0  0  0  0  0  0  0  0  0
    6.0680   -2.1268   21.4848 C   0  0  0  0  0  0  0  0  0  0  0  0
    4.9795   -2.9915   20.9214 O   0  0  0  0  0  0  0  0  0  0  0  0
    7.0148   -2.5058   22.5848 C   0  0  0  0  0  0  0  0  0  0  0  0
    6.0291   -3.5797   22.2313 C   0  0  0  0  0  0  0  0  0  0  0  0
    6.0537   -4.8901   22.9609 N   0  0  0  0  0  0  0  0  0  0  0  0
    7.0640   -5.1265   24.0441 C   0  0  0  0  0  0  0  0  0  0  0  0
    7.0886   -6.4369   24.7737 O   0  0  0  0  0  0  0  0  0  0  0  0
    8.0499   -4.0526   24.3976 C   0  0  0  0  0  0  0  0  0  0  0  0
    9.0602   -4.2891   25.4807 C   0  0  0  0  0  0  0  0  0  0  0  0
   10.0460   -3.2152   25.8342 C   0  0  0  0  0  0  0  0  0  0  0  0
   10.0214   -1.9048   25.1045 C   0  0  0  0  0  0  0  0  0  0  0  0
   11.0072   -0.8309   25.4581 F   0  0  0  0  0  0  0  0  0  0  0  0
    9.0110   -1.6684   24.0214 C   0  0  0  0  0  0  0  0  0  0  0  0
    8.0253   -2.7422   23.6679 C   0  0  0  0  0  0  0  0  0  0  0  0
    5.7034    0.0447   19.9694 C   0  0  0  0  0  0  0  0  0  0  0  0
    6.1955   -0.0288   18.5544 C   0  0  0  0  0  0  0  0  0  0  0  0
    5.4981    0.7471   17.4765 N   0  0  0  0  0  0  0  0  0  0  0  0
    4.3087    1.5965   17.8138 C   0  0  0  0  0  0  0  0  0  0  0  0
    3.8166    1.6700   19.2289 C   0  0  0  0  0  0  0  0  0  0  0  0
    2.6271    2.5194   19.5661 C   0  0  0  0  0  0  0  0  0  0  0  0
    2.1351    2.5929   20.9812 C   0  0  0  0  0  0  0  0  0  0  0  0
    2.8324    1.8170   22.0590 C   0  0  0  0  0  0  0  0  0  0  0  0
    4.0219    0.9676   21.7217 C   0  0  0  0  0  0  0  0  0  0  0  0
    4.5139    0.8941   20.3067 C   0  0  0  0  0  0  0  0  0  0  0  0
    5.0678   -5.9640   22.6074 C   0  0  0  0  0  0  0  0  0  0  0  0
    3.8280   -6.1448   23.4320 C   0  0  0  0  0  0  0  0  0  0  0  0
    2.5881   -6.3257   24.2565 N   0  0  0  0  0  0  0  0  0  0  0  0
  2  1  1  0  0  0
  2  3  1  0  0  0
  3  4  1  0  0  0
  4 19  1  0  0  0
 19 20  2  0  0  0
 20 21  1  0  0  0
 21 22  2  0  0  0
 22 23  1  0  0  0
 23 24  2  0  0  0
 24 25  1  0  0  0
 25 26  2  0  0  0
 26 27  1  0  0  0
 27 28  2  0  0  0
  4  5  1  0  0  0
  5  6  2  0  0  0
  5  7  1  0  0  0
  7  8  1  0  0  0
  8  9  1  0  0  0
  9 29  1  0  0  0
 29 30  1  0  0  0
 30 31  3  0  0  0
  9 10  1  0  0  0
 10 11  2  0  0  0
 10 12  1  0  0  0
 12 13  2  0  0  0
 13 14  1  0  0  0
 14 15  2  0  0  0
 15 16  1  0  0  0
 15 17  1  0  0  0
 17 18  2  0  0  0
  7  2  1  0  0  0
 18 12  1  0  0  0
 28 19  1  0  0  0
 18  7  1  0  0  0
 28 23  1  0  0  0
M  END
> <minimizedAffinity>
-7.72659

> <CNNscore>
0.6761059761

> <CNNaffinity>
6.3297119141

> <CNN_VS>
4.2795562744

> <CNNaffinity_variance>
0.0273497589

$$$$



 31 35  0  0  0  0  0  0  0  0999 V2000
    7.5334   -3.3091   23.4339 C   0  0  0  0  0  0  0  0  0  0  0  0
    7.7169   -2.0189   22.6910 C   0  0  0  0  0  0  0  0  0  0  0  0
    6.6044   -1.7687   21.7164 C   0  0  0  0  0  0  0  0  0  0  0  0
    6.8762   -0.4641   21.0277 N   0  0  0  0  0  0  0  0  0  0  0  0
    8.1567    0.0919   21.5767 C   0  0  0  0  0  0  0  0  0  0  0  0
    8.8039    1.3822   21.1692 O   0  0  0  0  0  0  0  0  0  0  0  0
    8.6762   -0.8690   22.6047 C   0  0  0  0  0  0  0  0  0  0  0  0
    9.5406    0.3411   22.4088 C   0  0  0  0  0  0  0  0  0  0  0  0
   10.7986    0.5018   23.2098 N   0  0  0  0  0  0  0  0  0  0  0  0
   11.1922   -0.5475   24.2067 C   0  0  0  0  0  0  0  0  0  0  0  0
   12.4502   -0.3868   25.0077 O   0  0  0  0  0  0  0  0  0  0  0  0
   10.3278   -1.7577   24.4027 C   0  0  0  0  0  0  0  0  0  0  0  0
   10.7214   -2.8071   25.3996 C   0  0  0  0  0  0  0  0  0  0  0  0
    9.8570   -4.0172   25.5955 C   0  0  0  0  0  0  0  0  0  0  0  0
    8.5990   -4.1779   24.7945 C   0  0  0  0  0  0  0  0  0  0  0  0
    7.7346   -5.3881   24.9904 F   0  0  0  0  0  0  0  0  0  0  0  0
    8.2054   -3.1286   23.7975 C   0  0  0  0  0  0  0  0  0  0  0  0
    9.0698   -1.9185   23.6016 C   0  0  0  0  0  0  0  0  0  0  0  0
    6.0183    0.1726   19.9748 C   0  0  0  0  0  0  0  0  0  0  0  0
    6.4138    0.0843   18.5307 C   0  0  0  0  0  0  0  0  0  0  0  0
    5.5558    0.7211   17.4779 N   0  0  0  0  0  0  0  0  0  0  0  0
    4.3024    1.4461   17.8693 C   0  0  0  0  0  0  0  0  0  0  0  0
    3.9070    1.5345   19.3135 C   0  0  0  0  0  0  0  0  0  0  0  0
    2.6535    2.2596   19.7049 C   0  0  0  0  0  0  0  0  0  0  0  0
    2.2581    2.3478   21.1492 C   0  0  0  0  0  0  0  0  0  0  0  0
    3.1160    1.7111   22.2019 C   0  0  0  0  0  0  0  0  0  0  0  0
    4.3694    0.9860   21.8105 C   0  0  0  0  0  0  0  0  0  0  0  0
    4.7649    0.8977   20.3664 C   0  0  0  0  0  0  0  0  0  0  0  0
   11.6630    1.7120   23.0138 C   0  0  0  0  0  0  0  0  0  0  0  0
   11.0409    3.0753   22.9478 C   0  0  0  0  0  0  0  0  0  0  0  0
   10.4188    4.4386   22.8818 N   0  0  0  0  0  0  0  0  0  0  0  0
  2  1  1  0  0  0
  2  3  1  0  0  0
  3  4  1  0  0  0
  4 19  1  0  0  0
 19 20  2  0  0  0
 20 21  1  0  0  0
 21 22  2  0  0  0
 22 23  1  0  0  0
 23 24  2  0  0  0
 24 25  1  0  0  0
 25 26  2  0  0  0
 26 27  1  0  0  0
 27 28  2  0  0  0
  4  5  1  0  0  0
  5  6  2  0  0  0
  5  7  1  0  0  0
  7  8  1  0  0  0
  8  9  1  0  0  0
  9 29  1  0  0  0
 29 30  1  0  0  0
 30 31  3  0  0  0
  9 10  1  0  0  0
 10 11  2  0  0  0
 10 12  1  0  0  0
 12 13  2  0  0  0
 13 14  1  0  0  0
 14 15  2  0  0  0
 15 16  1  0  0  0
 15 17  1  0  0  0
 17 18  2  0  0  0
  7  2  1  0  0  0
 18 12  1  0  0  0
 28 19  1  0  0  0
 18  7  1  0  0  0
 28 23  1  0  0  0
M  END
> <minimizedAffinity>
-8.93417

> <CNNscore>
0.5676437616

> <CNNaffinity>
6.3664751053

> <CNN_VS>
3.6138899326

> <CNNaffinity_variance>
0.1014927775

$$$$



 31 35  0  0  0  0  0  0  0  0999 V2000
   10.4536    0.2955   22.6847 C   0  0  0  0  0  0  0  0  0  0  0  0
    9.1322   -0.2728   22.2593 C   0  0  0  0  0  0  0  0  0  0  0  0
    8.4303    0.6139   21.2739 C   0  0  0  0  0  0  0  0  0  0  0  0
    7.1276   -0.0356   20.9116 N   0  0  0  0  0  0  0  0  0  0  0  0
    7.0245   -1.3238   21.6732 C   0  0  0  0  0  0  0  0  0  0  0  0
    5.8829   -2.2949   21.6125 O   0  0  0  0  0  0  0  0  0  0  0  0
    8.2634   -1.4704   22.5061 C   0  0  0  0  0  0  0  0  0  0  0  0
    7.2927   -2.6046   22.6517 C   0  0  0  0  0  0  0  0  0  0  0  0
    7.6075   -3.7480   23.5701 N   0  0  0  0  0  0  0  0  0  0  0  0
    8.8929   -3.7572   24.3430 C   0  0  0  0  0  0  0  0  0  0  0  0
    9.2077   -4.9006   25.2614 O   0  0  0  0  0  0  0  0  0  0  0  0
    9.8637   -2.6230   24.1975 C   0  0  0  0  0  0  0  0  0  0  0  0
   11.1492   -2.6321   24.9704 C   0  0  0  0  0  0  0  0  0  0  0  0
   12.1199   -1.4979   24.8248 C   0  0  0  0  0  0  0  0  0  0  0  0
   11.8051   -0.3545   23.9064 C   0  0  0  0  0  0  0  0  0  0  0  0
   12.7759    0.7798   23.7608 F   0  0  0  0  0  0  0  0  0  0  0  0
   10.5196   -0.3453   23.1335 C   0  0  0  0  0  0  0  0  0  0  0  0
    9.5489   -1.4795   23.2790 C   0  0  0  0  0  0  0  0  0  0  0  0
    6.1073    0.5075   19.9557 C   0  0  0  0  0  0  0  0  0  0  0  0
    6.0815    0.0289   18.5345 C   0  0  0  0  0  0  0  0  0  0  0  0
    5.0611    0.5721   17.5785 N   0  0  0  0  0  0  0  0  0  0  0  0
    4.0666    1.5940   18.0440 C   0  0  0  0  0  0  0  0  0  0  0  0
    4.0924    2.0726   19.4653 C   0  0  0  0  0  0  0  0  0  0  0  0
    3.0978    3.0946   19.9308 C   0  0  0  0  0  0  0  0  0  0  0  0
    3.1237    3.5732   21.3521 C   0  0  0  0  0  0  0  0  0  0  0  0
    4.1440    3.0300   22.3079 C   0  0  0  0  0  0  0  0  0  0  0  0
    5.1386    2.0081   21.8425 C   0  0  0  0  0  0  0  0  0  0  0  0
    5.1128    1.5294   20.4213 C   0  0  0  0  0  0  0  0  0  0  0  0
    6.6367   -4.8823   23.7156 C   0  0  0  0  0  0  0  0  0  0  0  0
    6.1381   -5.6036   22.4986 C   0  0  0  0  0  0  0  0  0  0  0  0
    5.6396   -6.3249   21.2816 N   0  0  0  0  0  0  0  0  0  0  0  0
  2  1  1  0  0  0
  2  3  1  0  0  0
  3  4  1  0  0  0
  4 19  1  0  0  0
 19 20  2  0  0  0
 20 21  1  0  0  0
 21 22  2  0  0  0
 22 23  1  0  0  0
 23 24  2  0  0  0
 24 25  1  0  0  0
 25 26  2  0  0  0
 26 27  1  0  0  0
 27 28  2  0  0  0
  4  5  1  0  0  0
  5  6  2  0  0  0
  5  7  1  0  0  0
  7  8  1  0  0  0
  8  9  1  0  0  0
  9 29  1  0  0  0
 29 30  1  0  0  0
 30 31  3  0  0  0
  9 10  1  0  0  0
 10 11  2  0  0  0
 10 12  1  0  0  0
 12 13  2  0  0  0
 13 14  1  0  0  0
 14 15  2  0  0  0
 15 16  1  0  0  0
 15 17  1  0  0  0
 17 18  2  0  0  0
  7  2  1  0  0  0
 18 12  1  0  0  0
 28 19  1  0  0  0
 18  7  1  0  0  0
 28 23  1  0  0  0
M  END
> <minimizedAffinity>
-8.76502

> <CNNscore>
0.4986462593

> <CNNaffinity>
6.4111833572

> <CNN_VS>
3.1969125271

> <CNNaffinity_variance>
0.0270734373

$$$$



 31 35  0  0  0  0  0  0  0  0999 V2000
    4.7761    2.3066   25.4058 C   0  0  0  0  0  0  0  0  0  0  0  0
    5.6447    2.0986   24.2006 C   0  0  0  0  0  0  0  0  0  0  0  0
    7.1028    2.0957   24.5527 C   0  0  0  0  0  0  0  0  0  0  0  0
    7.8841    1.8826   23.2901 N   0  0  0  0  0  0  0  0  0  0  0  0
    6.9088    1.7537   22.1577 C   0  0  0  0  0  0  0  0  0  0  0  0
    7.2566    1.5304   20.7158 O   0  0  0  0  0  0  0  0  0  0  0  0
    5.5248    1.8872   22.7204 C   0  0  0  0  0  0  0  0  0  0  0  0
    5.5618    1.6694   21.2368 C   0  0  0  0  0  0  0  0  0  0  0  0
    4.2825    1.6032   20.4564 N   0  0  0  0  0  0  0  0  0  0  0  0
    2.9663    1.7546   21.1596 C   0  0  0  0  0  0  0  0  0  0  0  0
    1.6870    1.6884   20.3792 O   0  0  0  0  0  0  0  0  0  0  0  0
    2.9293    1.9724   22.6433 C   0  0  0  0  0  0  0  0  0  0  0  0
    1.6130    2.1239   23.3465 C   0  0  0  0  0  0  0  0  0  0  0  0
    1.5761    2.3416   24.8301 C   0  0  0  0  0  0  0  0  0  0  0  0
    2.8554    2.4079   25.6105 C   0  0  0  0  0  0  0  0  0  0  0  0
    2.8183    2.6257   27.0942 F   0  0  0  0  0  0  0  0  0  0  0  0
    4.1716    2.2564   24.9073 C   0  0  0  0  0  0  0  0  0  0  0  0
    4.2085    2.0387   23.4237 C   0  0  0  0  0  0  0  0  0  0  0  0
    9.3783    1.8109   23.1793 C   0  0  0  0  0  0  0  0  0  0  0  0
   10.1299    2.8927   22.4621 C   0  0  0  0  0  0  0  0  0  0  0  0
   11.6241    2.8210   22.3513 N   0  0  0  0  0  0  0  0  0  0  0  0
   12.3666    1.6674   22.9578 C   0  0  0  0  0  0  0  0  0  0  0  0
   11.6149    0.5855   23.6750 C   0  0  0  0  0  0  0  0  0  0  0  0
   12.3575   -0.5682   24.2815 C   0  0  0  0  0  0  0  0  0  0  0  0
   11.6057   -1.6501   24.9988 C   0  0  0  0  0  0  0  0  0  0  0  0
   10.1116   -1.5783   25.1095 C   0  0  0  0  0  0  0  0  0  0  0  0
    9.3691   -0.4247   24.5031 C   0  0  0  0  0  0  0  0  0  0  0  0
   10.1207    0.6572   23.7858 C   0  0  0  0  0  0  0  0  0  0  0  0
    4.3195    1.3854   18.9727 C   0  0  0  0  0  0  0  0  0  0  0  0
    5.0864    0.2289   18.4033 C   0  0  0  0  0  0  0  0  0  0  0  0
    5.8533   -0.9277   17.8339 N   0  0  0  0  0  0  0  0  0  0  0  0
  2  1  1  0  0  0
  2  3  1  0  0  0
  3  4  1  0  0  0
  4 19  1  0  0  0
 19 20  2  0  0  0
 20 21  1  0  0  0
 21 22  2  0  0  0
 22 23  1  0  0  0
 23 24  2  0  0  0
 24 25  1  0  0  0
 25 26  2  0  0  0
 26 27  1  0  0  0
 27 28  2  0  0  0
  4  5  1  0  0  0
  5  6  2  0  0  0
  5  7  1  0  0  0
  7  8  1  0  0  0
  8  9  1  0  0  0
  9 29  1  0  0  0
 29 30  1  0  0  0
 30 31  3  0  0  0
  9 10  1  0  0  0
 10 11  2  0  0  0
 10 12  1  0  0  0
 12 13  2  0  0  0
 13 14  1  0  0  0
 14 15  2  0  0  0
 15 16  1  0  0  0
 15 17  1  0  0  0
 17 18  2  0  0  0
  7  2  1  0  0  0
 18 12  1  0  0  0
 28 19  1  0  0  0
 18  7  1  0  0  0
 28 23  1  0  0  0
M  END
> <minimizedAffinity>
-7.42055

> <CNNscore>
0.4734006524

> <CNNaffinity>
6.2622675896

> <CNN_VS>
2.9645614624

> <CNNaffinity_variance>
0.1708178818

$$$$



 31 35  0  0  0  0  0  0  0  0999 V2000
    6.2199   -5.1202   22.5196 C   0  0  0  0  0  0  0  0  0  0  0  0
    6.8207   -4.2328   23.5693 C   0  0  0  0  0  0  0  0  0  0  0  0
    8.0288   -3.5021   23.0629 C   0  0  0  0  0  0  0  0  0  0  0  0
    8.5543   -2.6469   24.1775 N   0  0  0  0  0  0  0  0  0  0  0  0
    7.6708   -2.8491   25.3728 C   0  0  0  0  0  0  0  0  0  0  0  0
    7.8308   -2.1872   26.7094 O   0  0  0  0  0  0  0  0  0  0  0  0
    6.5994   -3.8293   24.9969 C   0  0  0  0  0  0  0  0  0  0  0  0
    6.5046   -3.3339   26.4095 C   0  0  0  0  0  0  0  0  0  0  0  0
    5.4051   -3.8243   27.3041 N   0  0  0  0  0  0  0  0  0  0  0  0
    4.4003   -4.8102   26.7861 C   0  0  0  0  0  0  0  0  0  0  0  0
    3.3007   -5.3007   27.6807 O   0  0  0  0  0  0  0  0  0  0  0  0
    4.4950   -5.3057   25.3734 C   0  0  0  0  0  0  0  0  0  0  0  0
    3.4902   -6.2915   24.8554 C   0  0  0  0  0  0  0  0  0  0  0  0
    3.5850   -6.7869   23.4428 C   0  0  0  0  0  0  0  0  0  0  0  0
    4.6846   -6.2965   22.5482 C   0  0  0  0  0  0  0  0  0  0  0  0
    4.7793   -6.7919   21.1355 F   0  0  0  0  0  0  0  0  0  0  0  0
    5.6894   -5.3106   23.0662 C   0  0  0  0  0  0  0  0  0  0  0  0
    5.5946   -4.8152   24.4788 C   0  0  0  0  0  0  0  0  0  0  0  0
    9.7527   -1.7474   24.1090 C   0  0  0  0  0  0  0  0  0  0  0  0
    9.7058   -0.4973   23.2814 C   0  0  0  0  0  0  0  0  0  0  0  0
   10.9042    0.4022   23.2129 N   0  0  0  0  0  0  0  0  0  0  0  0
   12.1495    0.0516   23.9720 C   0  0  0  0  0  0  0  0  0  0  0  0
   12.1964   -1.1986   24.7996 C   0  0  0  0  0  0  0  0  0  0  0  0
   13.4417   -1.5492   25.5587 C   0  0  0  0  0  0  0  0  0  0  0  0
   13.4885   -2.7994   26.3863 C   0  0  0  0  0  0  0  0  0  0  0  0
   12.2901   -3.6988   26.4548 C   0  0  0  0  0  0  0  0  0  0  0  0
   11.0449   -3.3482   25.6957 C   0  0  0  0  0  0  0  0  0  0  0  0
   10.9980   -2.0981   24.8681 C   0  0  0  0  0  0  0  0  0  0  0  0
    5.3103   -3.3289   28.7168 C   0  0  0  0  0  0  0  0  0  0  0  0
    5.2118   -1.8574   28.9905 C   0  0  0  0  0  0  0  0  0  0  0  0
    5.1132   -0.3859   29.2642 N   0  0  0  0  0  0  0  0  0  0  0  0
  2  1  1  0  0  0
  2  3  1  0  0  0
  3  4  1  0  0  0
  4 19  1  0  0  0
 19 20  2  0  0  0
 20 21  1  0  0  0
 21 22  2  0  0  0
 22 23  1  0  0  0
 23 24  2  0  0  0
 24 25  1  0  0  0
 25 26  2  0  0  0
 26 27  1  0  0  0
 27 28  2  0  0  0
  4  5  1  0  0  0
  5  6  2  0  0  0
  5  7  1  0  0  0
  7  8  1  0  0  0
  8  9  1  0  0  0
  9 29  1  0  0  0
 29 30  1  0  0  0
 30 31  3  0  0  0
  9 10  1  0  0  0
 10 11  2  0  0  0
 10 12  1  0  0  0
 12 13  2  0  0  0
 13 14  1  0  0  0
 14 15  2  0  0  0
 15 16  1  0  0  0
 15 17  1  0  0  0
 17 18  2  0  0  0
  7  2  1  0  0  0
 18 12  1  0  0  0
 28 19  1  0  0  0
 18  7  1  0  0  0
 28 23  1  0  0  0
M  END
> <minimizedAffinity>
-7.36704

> <CNNscore>
0.4356674254

> <CNNaffinity>
6.2963743210

> <CNN_VS>
2.7431252003

> <CNNaffinity_variance>
0.1395796090

$$$$



 31 35  0  0  0  0  0  0  0  0999 V2000
    9.8914   -2.6340   26.2449 C   0  0  0  0  0  0  0  0  0  0  0  0
    9.0634   -1.5407   25.6372 C   0  0  0  0  0  0  0  0  0  0  0  0
    7.6311   -1.6100   26.0770 C   0  0  0  0  0  0  0  0  0  0  0  0
    6.8896   -0.4834   25.4206 N   0  0  0  0  0  0  0  0  0  0  0  0
    7.8637    0.2823   24.5751 C   0  0  0  0  0  0  0  0  0  0  0  0
    7.5495    1.4894   23.7421 O   0  0  0  0  0  0  0  0  0  0  0  0
    9.2073   -0.3712   24.7090 C   0  0  0  0  0  0  0  0  0  0  0  0
    9.1977    0.8240   23.8026 C   0  0  0  0  0  0  0  0  0  0  0  0
   10.4629    1.2630   23.1269 N   0  0  0  0  0  0  0  0  0  0  0  0
   11.7376    0.5068   23.3575 C   0  0  0  0  0  0  0  0  0  0  0  0
   13.0028    0.9458   22.6818 O   0  0  0  0  0  0  0  0  0  0  0  0
   11.7472   -0.6885   24.2638 C   0  0  0  0  0  0  0  0  0  0  0  0
   13.0219   -1.4446   24.4944 C   0  0  0  0  0  0  0  0  0  0  0  0
   13.0315   -2.6398   25.4007 C   0  0  0  0  0  0  0  0  0  0  0  0
   11.7663   -3.0788   26.0764 C   0  0  0  0  0  0  0  0  0  0  0  0
   11.7759   -4.2740   26.9828 F   0  0  0  0  0  0  0  0  0  0  0  0
   10.4916   -2.3226   25.8459 C   0  0  0  0  0  0  0  0  0  0  0  0
   10.4820   -1.1274   24.9396 C   0  0  0  0  0  0  0  0  0  0  0  0
    5.4302   -0.1763   25.5815 C   0  0  0  0  0  0  0  0  0  0  0  0
    4.9098    1.1899   25.2458 C   0  0  0  0  0  0  0  0  0  0  0  0
    3.4505    1.4970   25.4067 N   0  0  0  0  0  0  0  0  0  0  0  0
    2.5115    0.4379   25.9032 C   0  0  0  0  0  0  0  0  0  0  0  0
    3.0319   -0.9283   26.2388 C   0  0  0  0  0  0  0  0  0  0  0  0
    2.0928   -1.9875   26.7353 C   0  0  0  0  0  0  0  0  0  0  0  0
    2.6133   -3.3537   27.0710 C   0  0  0  0  0  0  0  0  0  0  0  0
    4.0726   -3.6607   26.9101 C   0  0  0  0  0  0  0  0  0  0  0  0
    5.0116   -2.6016   26.4136 C   0  0  0  0  0  0  0  0  0  0  0  0
    4.4912   -1.2355   26.0780 C   0  0  0  0  0  0  0  0  0  0  0  0
   10.4533    2.4582   22.2206 C   0  0  0  0  0  0  0  0  0  0  0  0
   11.5251    3.5005   22.3424 C   0  0  0  0  0  0  0  0  0  0  0  0
   12.5969    4.5427   22.4642 N   0  0  0  0  0  0  0  0  0  0  0  0
  2  1  1  0  0  0
  2  3  1  0  0  0
  3  4  1  0  0  0
  4 19  1  0  0  0
 19 20  2  0  0  0
 20 21  1  0  0  0
 21 22  2  0  0  0
 22 23  1  0  0  0
 23 24  2  0  0  0
 24 25  1  0  0  0
 25 26  2  0  0  0
 26 27  1  0  0  0
 27 28  2  0  0  0
  4  5  1  0  0  0
  5  6  2  0  0  0
  5  7  1  0  0  0
  7  8  1  0  0  0
  8  9  1  0  0  0
  9 29  1  0  0  0
 29 30  1  0  0  0
 30 31  3  0  0  0
  9 10  1  0  0  0
 10 11  2  0  0  0
 10 12  1  0  0  0
 12 13  2  0  0  0
 13 14  1  0  0  0
 14 15  2  0  0  0
 15 16  1  0  0  0
 15 17  1  0  0  0
 17 18  2  0  0  0
  7  2  1  0  0  0
 18 12  1  0  0  0
 28 19  1  0  0  0
 18  7  1  0  0  0
 28 23  1  0  0  0
M  END
> <minimizedAffinity>
-7.24838

> <CNNscore>
0.4332699776

> <CNNaffinity>
6.2822680473

> <CNN_VS>
2.7219181061

> <CNNaffinity_variance>
0.3432608545

$$$$



 31 35  0  0  0  0  0  0  0  0999 V2000
    6.4110   -2.9252   28.4263 C   0  0  0  0  0  0  0  0  0  0  0  0
    6.6738   -3.1437   26.9657 C   0  0  0  0  0  0  0  0  0  0  0  0
    7.8903   -2.4021   26.4966 C   0  0  0  0  0  0  0  0  0  0  0  0
    8.0683   -2.6819   25.0338 N   0  0  0  0  0  0  0  0  0  0  0  0
    6.9618   -3.5965   24.5988 C   0  0  0  0  0  0  0  0  0  0  0  0
    6.7538   -4.1317   23.2131 O   0  0  0  0  0  0  0  0  0  0  0  0
    6.0999   -3.8819   25.7928 C   0  0  0  0  0  0  0  0  0  0  0  0
    5.6435   -4.5596   24.5349 C   0  0  0  0  0  0  0  0  0  0  0  0
    4.4222   -5.4303   24.5529 N   0  0  0  0  0  0  0  0  0  0  0  0
    3.6574   -5.6234   25.8287 C   0  0  0  0  0  0  0  0  0  0  0  0
    2.4361   -6.4941   25.8467 O   0  0  0  0  0  0  0  0  0  0  0  0
    4.1138   -4.9456   27.0867 C   0  0  0  0  0  0  0  0  0  0  0  0
    3.3490   -5.1387   28.3625 C   0  0  0  0  0  0  0  0  0  0  0  0
    3.8055   -4.4609   29.6204 C   0  0  0  0  0  0  0  0  0  0  0  0
    5.0268   -3.5902   29.6024 C   0  0  0  0  0  0  0  0  0  0  0  0
    5.4832   -2.9125   30.8604 F   0  0  0  0  0  0  0  0  0  0  0  0
    5.7916   -3.3972   28.3266 C   0  0  0  0  0  0  0  0  0  0  0  0
    5.3351   -4.0749   27.0687 C   0  0  0  0  0  0  0  0  0  0  0  0
    9.1610   -2.1420   24.1594 C   0  0  0  0  0  0  0  0  0  0  0  0
    8.8233   -1.5057   22.8438 C   0  0  0  0  0  0  0  0  0  0  0  0
    9.9159   -0.9658   21.9694 N   0  0  0  0  0  0  0  0  0  0  0  0
   11.3463   -1.0622   22.4107 C   0  0  0  0  0  0  0  0  0  0  0  0
   11.6840   -1.6985   23.7264 C   0  0  0  0  0  0  0  0  0  0  0  0
   13.1144   -1.7949   24.1677 C   0  0  0  0  0  0  0  0  0  0  0  0
   13.4520   -2.4313   25.4834 C   0  0  0  0  0  0  0  0  0  0  0  0
   12.3594   -2.9711   26.3577 C   0  0  0  0  0  0  0  0  0  0  0  0
   10.9290   -2.8747   25.9164 C   0  0  0  0  0  0  0  0  0  0  0  0
   10.5913   -2.2384   24.6008 C   0  0  0  0  0  0  0  0  0  0  0  0
    3.9657   -6.1081   23.2949 C   0  0  0  0  0  0  0  0  0  0  0  0
    4.9118   -6.2643   22.1415 C   0  0  0  0  0  0  0  0  0  0  0  0
    5.8579   -6.4205   20.9880 N   0  0  0  0  0  0  0  0  0  0  0  0
  2  1  1  0  0  0
  2  3  1  0  0  0
  3  4  1  0  0  0
  4 19  1  0  0  0
 19 20  2  0  0  0
 20 21  1  0  0  0
 21 22  2  0  0  0
 22 23  1  0  0  0
 23 24  2  0  0  0
 24 25  1  0  0  0
 25 26  2  0  0  0
 26 27  1  0  0  0
 27 28  2  0  0  0
  4  5  1  0  0  0
  5  6  2  0  0  0
  5  7  1  0  0  0
  7  8  1  0  0  0
  8  9  1  0  0  0
  9 29  1  0  0  0
 29 30  1  0  0  0
 30 31  3  0  0  0
  9 10  1  0  0  0
 10 11  2  0  0  0
 10 12  1  0  0  0
 12 13  2  0  0  0
 13 14  1  0  0  0
 14 15  2  0  0  0
 15 16  1  0  0  0
 15 17  1  0  0  0
 17 18  2  0  0  0
  7  2  1  0  0  0
 18 12  1  0  0  0
 28 19  1  0  0  0
 18  7  1  0  0  0
 28 23  1  0  0  0
M  END
> <minimizedAffinity>
-7.57887

> <CNNscore>
0.4281965792

> <CNNaffinity>
6.2340989113

> <CNN_VS>
2.6694197655

> <CNNaffinity_variance>
0.1031047255

$$$$



 31 35  0  0  0  0  0  0  0  0999 V2000
   10.0881   -1.8271   24.6184 C   0  0  0  0  0  0  0  0  0  0  0  0
    9.6463   -0.7015   23.7308 C   0  0  0  0  0  0  0  0  0  0  0  0
   10.5553    0.4871   23.8359 C   0  0  0  0  0  0  0  0  0  0  0  0
   10.0337    1.5522   22.9176 N   0  0  0  0  0  0  0  0  0  0  0  0
    8.8023    1.0219   22.2448 C   0  0  0  0  0  0  0  0  0  0  0  0
    7.9586    1.7557   21.2450 O   0  0  0  0  0  0  0  0  0  0  0  0
    8.5629   -0.3710   22.7474 C   0  0  0  0  0  0  0  0  0  0  0  0
    7.5486    0.0996   21.7475 C   0  0  0  0  0  0  0  0  0  0  0  0
    6.4234   -0.8041   21.3385 N   0  0  0  0  0  0  0  0  0  0  0  0
    6.3125   -2.1783   21.9294 C   0  0  0  0  0  0  0  0  0  0  0  0
    5.1872   -3.0819   21.5204 O   0  0  0  0  0  0  0  0  0  0  0  0
    7.3268   -2.6489   22.9293 C   0  0  0  0  0  0  0  0  0  0  0  0
    7.2159   -4.0232   23.5201 C   0  0  0  0  0  0  0  0  0  0  0  0
    8.2302   -4.4937   24.5199 C   0  0  0  0  0  0  0  0  0  0  0  0
    9.3554   -3.5901   24.9289 C   0  0  0  0  0  0  0  0  0  0  0  0
   10.3697   -4.0607   25.9288 F   0  0  0  0  0  0  0  0  0  0  0  0
    9.4663   -2.2158   24.3381 C   0  0  0  0  0  0  0  0  0  0  0  0
    8.4520   -1.7453   23.3383 C   0  0  0  0  0  0  0  0  0  0  0  0
   10.6374    2.9094   22.7086 C   0  0  0  0  0  0  0  0  0  0  0  0
   12.0599    3.0348   22.2497 C   0  0  0  0  0  0  0  0  0  0  0  0
   12.6636    4.3920   22.0407 N   0  0  0  0  0  0  0  0  0  0  0  0
   11.8447    5.6236   22.2907 C   0  0  0  0  0  0  0  0  0  0  0  0
   10.4222    5.4981   22.7497 C   0  0  0  0  0  0  0  0  0  0  0  0
    9.6033    6.7299   22.9997 C   0  0  0  0  0  0  0  0  0  0  0  0
    8.1808    6.6043   23.4586 C   0  0  0  0  0  0  0  0  0  0  0  0
    7.5772    5.2472   23.6675 C   0  0  0  0  0  0  0  0  0  0  0  0
    8.3960    4.0155   23.4175 C   0  0  0  0  0  0  0  0  0  0  0  0
    9.8185    4.1410   22.9586 C   0  0  0  0  0  0  0  0  0  0  0  0
    5.4090   -0.3334   20.3387 C   0  0  0  0  0  0  0  0  0  0  0  0
    5.8551    0.1706   18.9982 C   0  0  0  0  0  0  0  0  0  0  0  0
    6.3012    0.6746   17.6577 N   0  0  0  0  0  0  0  0  0  0  0  0
  2  1  1  0  0  0
  2  3  1  0  0  0
  3  4  1  0  0  0
  4 19  1  0  0  0
 19 20  2  0  0  0
 20 21  1  0  0  0
 21 22  2  0  0  0
 22 23  1  0  0  0
 23 24  2  0  0  0
 24 25  1  0  0  0
 25 26  2  0  0  0
 26 27  1  0  0  0
 27 28  2  0  0  0
  4  5  1  0  0  0
  5  6  2  0  0  0
  5  7  1  0  0  0
  7  8  1  0  0  0
  8  9  1  0  0  0
  9 29  1  0  0  0
 29 30  1  0  0  0
 30 31  3  0  0  0
  9 10  1  0  0  0
 10 11  2  0  0  0
 10 12  1  0  0  0
 12 13  2  0  0  0
 13 14  1  0  0  0
 14 15  2  0  0  0
 15 16  1  0  0  0
 15 17  1  0  0  0
 17 18  2  0  0  0
  7  2  1  0  0  0
 18 12  1  0  0  0
 28 19  1  0  0  0
 18  7  1  0  0  0
 28 23  1  0  0  0
M  END
> <minimizedAffinity>
-8.26311

> <CNNscore>
0.3939721882

> <CNNaffinity>
6.3548307419

> <CNN_VS>
2.5036265850

> <CNNaffinity_variance>
0.1066040769

$$$$



 31 35  0  0  0  0  0  0  0  0999 V2000
    5.7559   -2.5979   24.7609 C   0  0  0  0  0  0  0  0  0  0  0  0
    6.4589   -1.8048   23.6994 C   0  0  0  0  0  0  0  0  0  0  0  0
    5.5375   -1.4272   22.5775 C   0  0  0  0  0  0  0  0  0  0  0  0
    6.3278   -0.6420   21.5730 N   0  0  0  0  0  0  0  0  0  0  0  0
    7.7376   -0.5344   22.0741 C   0  0  0  0  0  0  0  0  0  0  0  0
    8.8679    0.1685   21.3824 O   0  0  0  0  0  0  0  0  0  0  0  0
    7.8186   -1.2530   23.3883 C   0  0  0  0  0  0  0  0  0  0  0  0
    9.1157   -0.6440   22.9450 C   0  0  0  0  0  0  0  0  0  0  0  0
   10.3412   -0.7860   23.7982 N   0  0  0  0  0  0  0  0  0  0  0  0
   10.2696   -1.5369   25.0947 C   0  0  0  0  0  0  0  0  0  0  0  0
   11.4951   -1.6788   25.9480 O   0  0  0  0  0  0  0  0  0  0  0  0
    8.9724   -2.1459   25.5381 C   0  0  0  0  0  0  0  0  0  0  0  0
    8.9007   -2.8968   26.8346 C   0  0  0  0  0  0  0  0  0  0  0  0
    7.6036   -3.5058   27.2778 C   0  0  0  0  0  0  0  0  0  0  0  0
    6.3781   -3.3639   26.4246 C   0  0  0  0  0  0  0  0  0  0  0  0
    5.0809   -3.9729   26.8679 F   0  0  0  0  0  0  0  0  0  0  0  0
    6.4497   -2.6130   25.1281 C   0  0  0  0  0  0  0  0  0  0  0  0
    7.7469   -2.0040   24.6848 C   0  0  0  0  0  0  0  0  0  0  0  0
    5.8009   -0.0657   20.2923 C   0  0  0  0  0  0  0  0  0  0  0  0
    6.4714   -0.3925   18.9910 C   0  0  0  0  0  0  0  0  0  0  0  0
    5.9445    0.1839   17.7103 N   0  0  0  0  0  0  0  0  0  0  0  0
    4.7471    1.0870   17.7310 C   0  0  0  0  0  0  0  0  0  0  0  0
    4.0766    1.4138   19.0324 C   0  0  0  0  0  0  0  0  0  0  0  0
    2.8791    2.3170   19.0531 C   0  0  0  0  0  0  0  0  0  0  0  0
    2.2086    2.6438   20.3545 C   0  0  0  0  0  0  0  0  0  0  0  0
    2.7356    2.0675   21.6351 C   0  0  0  0  0  0  0  0  0  0  0  0
    3.9330    1.1643   21.6144 C   0  0  0  0  0  0  0  0  0  0  0  0
    4.6035    0.8375   20.3131 C   0  0  0  0  0  0  0  0  0  0  0  0
   11.6384   -0.1769   23.3549 C   0  0  0  0  0  0  0  0  0  0  0  0
   12.4080   -0.7921   22.2239 C   0  0  0  0  0  0  0  0  0  0  0  0
   13.1776   -1.4073   21.0929 N   0  0  0  0  0  0  0  0  0  0  0  0
  2  1  1  0  0  0
  2  3  1  0  0  0
  3  4  1  0  0  0
  4 19  1  0  0  0
 19 20  2  0  0  0
 20 21  1  0  0  0
 21 22  2  0  0  0
 22 23  1  0  0  0
 23 24  2  0  0  0
 24 25  1  0  0  0
 25 26  2  0  0  0
 26 27  1  0  0  0
 27 28  2  0  0  0
  4  5  1  0  0  0
  5  6  2  0  0  0
  5  7  1  0  0  0
  7  8  1  0  0  0
  8  9  1  0  0  0
  9 29  1  0  0  0
 29 30  1  0  0  0
 30 31  3  0  0  0
  9 10  1  0  0  0
 10 11  2  0  0  0
 10 12  1  0  0  0
 12 13  2  0  0  0
 13 14  1  0  0  0
 14 15  2  0  0  0
 15 16  1  0  0  0
 15 17  1  0  0  0
 17 18  2  0  0  0
  7  2  1  0  0  0
 18 12  1  0  0  0
 28 19  1  0  0  0
 18  7  1  0  0  0
 28 23  1  0  0  0
M  END
> <minimizedAffinity>
-7.71703

> <CNNscore>
0.3584302366

> <CNNaffinity>
6.1816835403

> <CNN_VS>
2.2157022953

> <CNNaffinity_variance>
0.0647220016

$$$$
