


 31 35  0  0  0  0  0  0  0  0999 V2000
   -9.5679   -2.4894  -23.6542 C   0  0  0  0  0  0  0  0  0  0  0  0
   -8.3143   -2.7088  -22.8601 C   0  0  0  0  0  0  0  0  0  0  0  0
   -8.0426   -1.5762  -21.9148 C   0  0  0  0  0  0  0  0  0  0  0  0
   -6.7772   -1.8864  -21.1715 N   0  0  0  0  0  0  0  0  0  0  0  0
   -6.2669   -3.2106  -21.6574 C   0  0  0  0  0  0  0  0  0  0  0  0
   -5.0247   -3.9047  -21.1829 O   0  0  0  0  0  0  0  0  0  0  0  0
   -7.2169   -3.7189  -22.7010 C   0  0  0  0  0  0  0  0  0  0  0  0
   -6.0583   -4.6332  -22.4335 C   0  0  0  0  0  0  0  0  0  0  0  0
   -5.9329   -5.9248  -23.1859 N   0  0  0  0  0  0  0  0  0  0  0  0
   -6.9660   -6.3020  -24.2059 C   0  0  0  0  0  0  0  0  0  0  0  0
   -6.8405   -7.5935  -24.9583 O   0  0  0  0  0  0  0  0  0  0  0  0
   -8.1246   -5.3876  -24.4735 C   0  0  0  0  0  0  0  0  0  0  0  0
   -9.1577   -5.7647  -25.4935 C   0  0  0  0  0  0  0  0  0  0  0  0
  -10.3162   -4.8503  -25.7610 C   0  0  0  0  0  0  0  0  0  0  0  0
  -10.4417   -3.5588  -25.0086 C   0  0  0  0  0  0  0  0  0  0  0  0
  -11.6003   -2.6444  -25.2762 F   0  0  0  0  0  0  0  0  0  0  0  0
   -9.4086   -3.1816  -23.9886 C   0  0  0  0  0  0  0  0  0  0  0  0
   -8.2500   -4.0960  -23.7211 C   0  0  0  0  0  0  0  0  0  0  0  0
   -6.1349   -1.0239  -20.1258 C   0  0  0  0  0  0  0  0  0  0  0  0
   -6.6755   -1.0131  -18.7267 C   0  0  0  0  0  0  0  0  0  0  0  0
   -6.0332   -0.1506  -17.6810 N   0  0  0  0  0  0  0  0  0  0  0  0
   -4.8503    0.7012  -18.0345 C   0  0  0  0  0  0  0  0  0  0  0  0
   -4.3096    0.6905  -19.4337 C   0  0  0  0  0  0  0  0  0  0  0  0
   -3.1266    1.5424  -19.7871 C   0  0  0  0  0  0  0  0  0  0  0  0
   -2.5860    1.5316  -21.1863 C   0  0  0  0  0  0  0  0  0  0  0  0
   -3.2283    0.6691  -22.2319 C   0  0  0  0  0  0  0  0  0  0  0  0
   -4.4113   -0.1828  -21.8784 C   0  0  0  0  0  0  0  0  0  0  0  0
   -4.9519   -0.1720  -20.4794 C   0  0  0  0  0  0  0  0  0  0  0  0
   -4.7742   -6.8392  -22.9183 C   0  0  0  0  0  0  0  0  0  0  0  0
   -3.5911   -6.8402  -23.8403 C   0  0  0  0  0  0  0  0  0  0  0  0
   -2.4079   -6.8412  -24.7623 N   0  0  0  0  0  0  0  0  0  0  0  0
  2  1  1  0  0  0
  2  3  1  0  0  0
  3  4  1  0  0  0
  4 19  1  0  0  0
 19 20  2  0  0  0
 20 21  1  0  0  0
 21 22  2  0  0  0
 22 23  1  0  0  0
 23 24  2  0  0  0
 24 25  1  0  0  0
 25 26  2  0  0  0
 26 27  1  0  0  0
 27 28  2  0  0  0
  4  5  1  0  0  0
  5  6  2  0  0  0
  5  7  1  0  0  0
  7  8  1  0  0  0
  8  9  1  0  0  0
  9 29  1  0  0  0
 29 30  1  0  0  0
 30 31  3  0  0  0
  9 10  1  0  0  0
 10 11  2  0  0  0
 10 12  1  0  0  0
 12 13  2  0  0  0
 13 14  1  0  0  0
 14 15  2  0  0  0
 15 16  1  0  0  0
 15 17  1  0  0  0
 17 18  2  0  0  0
  7  2  1  0  0  0
 18 12  1  0  0  0
 28 19  1  0  0  0
 18  7  1  0  0  0
 28 23  1  0  0  0
M  END
> <minimizedAffinity>
-7.72905

> <CNNscore>
0.6601230502

> <CNNaffinity>
6.2768239975

> <CNN_VS>
4.1434760094

> <CNNaffinity_variance>
0.1398347616

$$$$



 31 35  0  0  0  0  0  0  0  0999 V2000
   -5.7396   -5.4059  -23.4496 C   0  0  0  0  0  0  0  0  0  0  0  0
   -6.4090   -4.2280  -22.8056 C   0  0  0  0  0  0  0  0  0  0  0  0
   -5.5233   -3.5616  -21.7950 C   0  0  0  0  0  0  0  0  0  0  0  0
   -6.2765   -2.4036  -21.2105 N   0  0  0  0  0  0  0  0  0  0  0  0
   -7.6278   -2.3544  -21.8599 C   0  0  0  0  0  0  0  0  0  0  0  0
   -8.7075   -1.3533  -21.5736 O   0  0  0  0  0  0  0  0  0  0  0  0
   -7.7097   -3.4819  -22.8457 C   0  0  0  0  0  0  0  0  0  0  0  0
   -8.9500   -2.6413  -22.7759 C   0  0  0  0  0  0  0  0  0  0  0  0
  -10.1260   -2.9657  -23.6487 N   0  0  0  0  0  0  0  0  0  0  0  0
  -10.0617   -4.1308  -24.5912 C   0  0  0  0  0  0  0  0  0  0  0  0
  -11.2378   -4.4552  -25.4640 O   0  0  0  0  0  0  0  0  0  0  0  0
   -8.8214   -4.9715  -24.6611 C   0  0  0  0  0  0  0  0  0  0  0  0
   -8.7571   -6.1365  -25.6036 C   0  0  0  0  0  0  0  0  0  0  0  0
   -7.5168   -6.9772  -25.6734 C   0  0  0  0  0  0  0  0  0  0  0  0
   -6.3407   -6.6527  -24.8007 C   0  0  0  0  0  0  0  0  0  0  0  0
   -5.1003   -7.4934  -24.8705 F   0  0  0  0  0  0  0  0  0  0  0  0
   -6.4050   -5.4876  -23.8581 C   0  0  0  0  0  0  0  0  0  0  0  0
   -7.6453   -4.6470  -23.7883 C   0  0  0  0  0  0  0  0  0  0  0  0
   -5.7679   -1.4604  -20.1608 C   0  0  0  0  0  0  0  0  0  0  0  0
   -6.2016   -1.6216  -18.7341 C   0  0  0  0  0  0  0  0  0  0  0  0
   -5.6930   -0.6784  -17.6845 N   0  0  0  0  0  0  0  0  0  0  0  0
   -4.7505    0.4259  -18.0617 C   0  0  0  0  0  0  0  0  0  0  0  0
   -4.3168    0.5870  -19.4886 C   0  0  0  0  0  0  0  0  0  0  0  0
   -3.3743    1.6914  -19.8658 C   0  0  0  0  0  0  0  0  0  0  0  0
   -2.9405    1.8524  -21.2926 C   0  0  0  0  0  0  0  0  0  0  0  0
   -3.4492    0.9092  -22.3422 C   0  0  0  0  0  0  0  0  0  0  0  0
   -4.3916   -0.1950  -21.9649 C   0  0  0  0  0  0  0  0  0  0  0  0
   -4.8254   -0.3562  -20.5382 C   0  0  0  0  0  0  0  0  0  0  0  0
  -11.3664   -2.1250  -23.5788 C   0  0  0  0  0  0  0  0  0  0  0  0
  -12.4687   -2.4919  -22.6300 C   0  0  0  0  0  0  0  0  0  0  0  0
  -13.5709   -2.8589  -21.6811 N   0  0  0  0  0  0  0  0  0  0  0  0
  2  1  1  0  0  0
  2  3  1  0  0  0
  3  4  1  0  0  0
  4 19  1  0  0  0
 19 20  2  0  0  0
 20 21  1  0  0  0
 21 22  2  0  0  0
 22 23  1  0  0  0
 23 24  2  0  0  0
 24 25  1  0  0  0
 25 26  2  0  0  0
 26 27  1  0  0  0
 27 28  2  0  0  0
  4  5  1  0  0  0
  5  6  2  0  0  0
  5  7  1  0  0  0
  7  8  1  0  0  0
  8  9  1  0  0  0
  9 29  1  0  0  0
 29 30  1  0  0  0
 30 31  3  0  0  0
  9 10  1  0  0  0
 10 11  2  0  0  0
 10 12  1  0  0  0
 12 13  2  0  0  0
 13 14  1  0  0  0
 14 15  2  0  0  0
 15 16  1  0  0  0
 15 17  1  0  0  0
 17 18  2  0  0  0
  7  2  1  0  0  0
 18 12  1  0  0  0
 28 19  1  0  0  0
 18  7  1  0  0  0
 28 23  1  0  0  0
M  END
> <minimizedAffinity>
-8.47152

> <CNNscore>
0.6287751198

> <CNNaffinity>
6.3195981979

> <CNN_VS>
3.9736061096

> <CNNaffinity_variance>
0.1168609411

$$$$



 31 35  0  0  0  0  0  0  0  0999 V2000
   -5.5856    1.1936  -26.1205 C   0  0  0  0  0  0  0  0  0  0  0  0
   -6.4337    1.1196  -24.8854 C   0  0  0  0  0  0  0  0  0  0  0  0
   -7.8980    1.1800  -25.2048 C   0  0  0  0  0  0  0  0  0  0  0  0
   -8.6577    1.0995  -23.9140 N   0  0  0  0  0  0  0  0  0  0  0  0
   -7.6629    0.9894  -22.7967 C   0  0  0  0  0  0  0  0  0  0  0  0
   -7.9859    0.8852  -21.3356 O   0  0  0  0  0  0  0  0  0  0  0  0
   -6.2883    1.0018  -23.3971 C   0  0  0  0  0  0  0  0  0  0  0  0
   -6.2998    0.8873  -21.9015 C   0  0  0  0  0  0  0  0  0  0  0  0
   -5.0069    0.7977  -21.1463 N   0  0  0  0  0  0  0  0  0  0  0  0
   -3.7026    0.8225  -21.8865 C   0  0  0  0  0  0  0  0  0  0  0  0
   -2.4097    0.7329  -21.1312 O   0  0  0  0  0  0  0  0  0  0  0  0
   -3.6911    0.9371  -23.3821 C   0  0  0  0  0  0  0  0  0  0  0  0
   -2.3867    0.9619  -24.1224 C   0  0  0  0  0  0  0  0  0  0  0  0
   -2.3752    1.0764  -25.6179 C   0  0  0  0  0  0  0  0  0  0  0  0
   -3.6681    1.1660  -26.3732 C   0  0  0  0  0  0  0  0  0  0  0  0
   -3.6566    1.2806  -27.8689 F   0  0  0  0  0  0  0  0  0  0  0  0
   -4.9724    1.1412  -25.6330 C   0  0  0  0  0  0  0  0  0  0  0  0
   -4.9839    1.0267  -24.1374 C   0  0  0  0  0  0  0  0  0  0  0  0
  -10.1502    1.1247  -23.7662 C   0  0  0  0  0  0  0  0  0  0  0  0
  -10.9028    2.4055  -23.9737 C   0  0  0  0  0  0  0  0  0  0  0  0
  -12.3953    2.4307  -23.8259 N   0  0  0  0  0  0  0  0  0  0  0  0
  -13.1351    1.1751  -23.4707 C   0  0  0  0  0  0  0  0  0  0  0  0
  -12.3824   -0.1057  -23.2632 C   0  0  0  0  0  0  0  0  0  0  0  0
  -13.1223   -1.3613  -22.9080 C   0  0  0  0  0  0  0  0  0  0  0  0
  -12.3695   -2.6421  -22.7005 C   0  0  0  0  0  0  0  0  0  0  0  0
  -10.8771   -2.6672  -22.8483 C   0  0  0  0  0  0  0  0  0  0  0  0
  -10.1373   -1.4116  -23.2035 C   0  0  0  0  0  0  0  0  0  0  0  0
  -10.8899   -0.1309  -23.4110 C   0  0  0  0  0  0  0  0  0  0  0  0
   -5.0185    0.6832  -19.6506 C   0  0  0  0  0  0  0  0  0  0  0  0
   -5.4788   -0.5871  -18.9992 C   0  0  0  0  0  0  0  0  0  0  0  0
   -5.9392   -1.8574  -18.3478 N   0  0  0  0  0  0  0  0  0  0  0  0
  2  1  1  0  0  0
  2  3  1  0  0  0
  3  4  1  0  0  0
  4 19  1  0  0  0
 19 20  2  0  0  0
 20 21  1  0  0  0
 21 22  2  0  0  0
 22 23  1  0  0  0
 23 24  2  0  0  0
 24 25  1  0  0  0
 25 26  2  0  0  0
 26 27  1  0  0  0
 27 28  2  0  0  0
  4  5  1  0  0  0
  5  6  2  0  0  0
  5  7  1  0  0  0
  7  8  1  0  0  0
  8  9  1  0  0  0
  9 29  1  0  0  0
 29 30  1  0  0  0
 30 31  3  0  0  0
  9 10  1  0  0  0
 10 11  2  0  0  0
 10 12  1  0  0  0
 12 13  2  0  0  0
 13 14  1  0  0  0
 14 15  2  0  0  0
 15 16  1  0  0  0
 15 17  1  0  0  0
 17 18  2  0  0  0
  7  2  1  0  0  0
 18 12  1  0  0  0
 28 19  1  0  0  0
 18  7  1  0  0  0
 28 23  1  0  0  0
M  END
> <minimizedAffinity>
-7.23514

> <CNNscore>
0.5978679061

> <CNNaffinity>
6.1637439728

> <CNN_VS>
3.6851046085

> <CNNaffinity_variance>
0.0543829687

$$$$



 31 35  0  0  0  0  0  0  0  0999 V2000
   -5.4170   -0.6751  -25.9234 C   0  0  0  0  0  0  0  0  0  0  0  0
   -6.2272   -0.5196  -24.6706 C   0  0  0  0  0  0  0  0  0  0  0  0
   -7.6760   -0.8365  -24.8955 C   0  0  0  0  0  0  0  0  0  0  0  0
   -8.3981   -0.6532  -23.5936 N   0  0  0  0  0  0  0  0  0  0  0  0
   -7.3956   -0.2230  -22.5641 C   0  0  0  0  0  0  0  0  0  0  0  0
   -7.6841    0.0727  -21.1222 O   0  0  0  0  0  0  0  0  0  0  0  0
   -6.0539   -0.1405  -23.2297 C   0  0  0  0  0  0  0  0  0  0  0  0
   -6.0349    0.2147  -21.7726 C   0  0  0  0  0  0  0  0  0  0  0  0
   -4.7461    0.6075  -21.1131 N   0  0  0  0  0  0  0  0  0  0  0  0
   -3.4764    0.6451  -21.9108 C   0  0  0  0  0  0  0  0  0  0  0  0
   -2.1877    1.0378  -21.2513 O   0  0  0  0  0  0  0  0  0  0  0  0
   -3.4954    0.2899  -23.3681 C   0  0  0  0  0  0  0  0  0  0  0  0
   -2.2257    0.3275  -24.1658 C   0  0  0  0  0  0  0  0  0  0  0  0
   -2.2448   -0.0276  -25.6230 C   0  0  0  0  0  0  0  0  0  0  0  0
   -3.5335   -0.4204  -26.2825 C   0  0  0  0  0  0  0  0  0  0  0  0
   -3.5525   -0.7755  -27.7397 F   0  0  0  0  0  0  0  0  0  0  0  0
   -4.8032   -0.4580  -25.4847 C   0  0  0  0  0  0  0  0  0  0  0  0
   -4.7842   -0.1029  -24.0276 C   0  0  0  0  0  0  0  0  0  0  0  0
   -9.8652   -0.8632  -23.3619 C   0  0  0  0  0  0  0  0  0  0  0  0
  -10.3786   -2.2224  -22.9895 C   0  0  0  0  0  0  0  0  0  0  0  0
  -11.8456   -2.4324  -22.7577 N   0  0  0  0  0  0  0  0  0  0  0  0
  -12.7992   -1.2831  -22.8984 C   0  0  0  0  0  0  0  0  0  0  0  0
  -12.2857    0.0762  -23.2708 C   0  0  0  0  0  0  0  0  0  0  0  0
  -13.2393    1.2256  -23.4115 C   0  0  0  0  0  0  0  0  0  0  0  0
  -12.7257    2.5848  -23.7839 C   0  0  0  0  0  0  0  0  0  0  0  0
  -11.2587    2.7947  -24.0156 C   0  0  0  0  0  0  0  0  0  0  0  0
  -10.3052    1.6454  -23.8749 C   0  0  0  0  0  0  0  0  0  0  0  0
  -10.8187    0.2862  -23.5026 C   0  0  0  0  0  0  0  0  0  0  0  0
   -4.7271    0.9626  -19.6558 C   0  0  0  0  0  0  0  0  0  0  0  0
   -5.1049   -0.0633  -18.6288 C   0  0  0  0  0  0  0  0  0  0  0  0
   -5.4827   -1.0892  -17.6019 N   0  0  0  0  0  0  0  0  0  0  0  0
  2  1  1  0  0  0
  2  3  1  0  0  0
  3  4  1  0  0  0
  4 19  1  0  0  0
 19 20  2  0  0  0
 20 21  1  0  0  0
 21 22  2  0  0  0
 22 23  1  0  0  0
 23 24  2  0  0  0
 24 25  1  0  0  0
 25 26  2  0  0  0
 26 27  1  0  0  0
 27 28  2  0  0  0
  4  5  1  0  0  0
  5  6  2  0  0  0
  5  7  1  0  0  0
  7  8  1  0  0  0
  8  9  1  0  0  0
  9 29  1  0  0  0
 29 30  1  0  0  0
 30 31  3  0  0  0
  9 10  1  0  0  0
 10 11  2  0  0  0
 10 12  1  0  0  0
 12 13  2  0  0  0
 13 14  1  0  0  0
 14 15  2  0  0  0
 15 16  1  0  0  0
 15 17  1  0  0  0
 17 18  2  0  0  0
  7  2  1  0  0  0
 18 12  1  0  0  0
 28 19  1  0  0  0
 18  7  1  0  0  0
 28 23  1  0  0  0
M  END
> <minimizedAffinity>
-7.60529

> <CNNscore>
0.4416968226

> <CNNaffinity>
6.0084409714

> <CNN_VS>
2.6539092064

> <CNNaffinity_variance>
0.0197203215

$$$$



 31 35  0  0  0  0  0  0  0  0999 V2000
   -9.7366   -4.8614  -25.3140 C   0  0  0  0  0  0  0  0  0  0  0  0
   -9.6026   -3.6531  -24.4352 C   0  0  0  0  0  0  0  0  0  0  0  0
  -10.7018   -2.6606  -24.6731 C   0  0  0  0  0  0  0  0  0  0  0  0
  -10.4817   -1.4960  -23.7538 N   0  0  0  0  0  0  0  0  0  0  0  0
   -9.2464   -1.7688  -22.9477 C   0  0  0  0  0  0  0  0  0  0  0  0
   -8.6578   -0.8666  -21.9038 O   0  0  0  0  0  0  0  0  0  0  0  0
   -8.7031   -3.1020  -23.3689 C   0  0  0  0  0  0  0  0  0  0  0  0
   -7.8988   -2.4260  -22.2984 C   0  0  0  0  0  0  0  0  0  0  0  0
   -6.6714   -3.0912  -21.7496 N   0  0  0  0  0  0  0  0  0  0  0  0
   -6.2484   -4.4324  -22.2713 C   0  0  0  0  0  0  0  0  0  0  0  0
   -5.0211   -5.0976  -21.7225 O   0  0  0  0  0  0  0  0  0  0  0  0
   -7.0528   -5.1084  -23.3419 C   0  0  0  0  0  0  0  0  0  0  0  0
   -6.6298   -6.4496  -23.8636 C   0  0  0  0  0  0  0  0  0  0  0  0
   -7.4341   -7.1256  -24.9341 C   0  0  0  0  0  0  0  0  0  0  0  0
   -8.6614   -6.4604  -25.4829 C   0  0  0  0  0  0  0  0  0  0  0  0
   -9.4657   -7.1364  -26.5535 F   0  0  0  0  0  0  0  0  0  0  0  0
   -9.0844   -5.1192  -24.9612 C   0  0  0  0  0  0  0  0  0  0  0  0
   -8.2801   -4.4432  -23.8907 C   0  0  0  0  0  0  0  0  0  0  0  0
  -11.3452   -0.2733  -23.6574 C   0  0  0  0  0  0  0  0  0  0  0  0
  -12.7824   -0.4005  -23.2474 C   0  0  0  0  0  0  0  0  0  0  0  0
  -13.6459    0.8222  -23.1510 N   0  0  0  0  0  0  0  0  0  0  0  0
  -13.0721    2.1722  -23.4646 C   0  0  0  0  0  0  0  0  0  0  0  0
  -11.6348    2.2994  -23.8746 C   0  0  0  0  0  0  0  0  0  0  0  0
  -11.0610    3.6495  -24.1883 C   0  0  0  0  0  0  0  0  0  0  0  0
   -9.6238    3.7766  -24.5983 C   0  0  0  0  0  0  0  0  0  0  0  0
   -8.7604    2.5539  -24.6947 C   0  0  0  0  0  0  0  0  0  0  0  0
   -9.3341    1.2039  -24.3810 C   0  0  0  0  0  0  0  0  0  0  0  0
  -10.7713    1.0767  -23.9710 C   0  0  0  0  0  0  0  0  0  0  0  0
   -5.8671   -2.4151  -20.6790 C   0  0  0  0  0  0  0  0  0  0  0  0
   -6.5555   -1.5932  -19.6299 C   0  0  0  0  0  0  0  0  0  0  0  0
   -7.2439   -0.7713  -18.5809 N   0  0  0  0  0  0  0  0  0  0  0  0
  2  1  1  0  0  0
  2  3  1  0  0  0
  3  4  1  0  0  0
  4 19  1  0  0  0
 19 20  2  0  0  0
 20 21  1  0  0  0
 21 22  2  0  0  0
 22 23  1  0  0  0
 23 24  2  0  0  0
 24 25  1  0  0  0
 25 26  2  0  0  0
 26 27  1  0  0  0
 27 28  2  0  0  0
  4  5  1  0  0  0
  5  6  2  0  0  0
  5  7  1  0  0  0
  7  8  1  0  0  0
  8  9  1  0  0  0
  9 29  1  0  0  0
 29 30  1  0  0  0
 30 31  3  0  0  0
  9 10  1  0  0  0
 10 11  2  0  0  0
 10 12  1  0  0  0
 12 13  2  0  0  0
 13 14  1  0  0  0
 14 15  2  0  0  0
 15 16  1  0  0  0
 15 17  1  0  0  0
 17 18  2  0  0  0
  7  2  1  0  0  0
 18 12  1  0  0  0
 28 19  1  0  0  0
 18  7  1  0  0  0
 28 23  1  0  0  0
M  END
> <minimizedAffinity>
-7.99025

> <CNNscore>
0.4151917696

> <CNNaffinity>
6.2491774559

> <CNN_VS>
2.5946071148

> <CNNaffinity_variance>
0.1432755291

$$$$



 31 35  0  0  0  0  0  0  0  0999 V2000
   -5.6799    2.3268  -25.7884 C   0  0  0  0  0  0  0  0  0  0  0  0
   -6.5488    1.9010  -24.6422 C   0  0  0  0  0  0  0  0  0  0  0  0
   -8.0058    1.9403  -24.9968 C   0  0  0  0  0  0  0  0  0  0  0  0
   -8.7875    1.5006  -23.7945 N   0  0  0  0  0  0  0  0  0  0  0  0
   -7.8136    1.1895  -22.6968 C   0  0  0  0  0  0  0  0  0  0  0  0
   -8.1621    0.7143  -21.3174 O   0  0  0  0  0  0  0  0  0  0  0  0
   -6.4300    1.4369  -23.2208 C   0  0  0  0  0  0  0  0  0  0  0  0
   -6.4680    0.9640  -21.7978 C   0  0  0  0  0  0  0  0  0  0  0  0
   -5.1900    0.7798  -21.0343 N   0  0  0  0  0  0  0  0  0  0  0  0
   -3.8741    1.0685  -21.6938 C   0  0  0  0  0  0  0  0  0  0  0  0
   -2.5962    0.8843  -20.9303 O   0  0  0  0  0  0  0  0  0  0  0  0
   -3.8361    1.5415  -23.1168 C   0  0  0  0  0  0  0  0  0  0  0  0
   -2.5202    1.8302  -23.7763 C   0  0  0  0  0  0  0  0  0  0  0  0
   -2.4822    2.3031  -25.1993 C   0  0  0  0  0  0  0  0  0  0  0  0
   -3.7602    2.4873  -25.9627 C   0  0  0  0  0  0  0  0  0  0  0  0
   -3.7221    2.9603  -27.3858 F   0  0  0  0  0  0  0  0  0  0  0  0
   -5.0761    2.1986  -25.3033 C   0  0  0  0  0  0  0  0  0  0  0  0
   -5.1141    1.7257  -23.8803 C   0  0  0  0  0  0  0  0  0  0  0  0
  -10.2808    1.3911  -23.7054 C   0  0  0  0  0  0  0  0  0  0  0  0
  -10.9259    0.0468  -23.5426 C   0  0  0  0  0  0  0  0  0  0  0  0
  -12.4192   -0.0626  -23.4536 N   0  0  0  0  0  0  0  0  0  0  0  0
  -13.2674    1.1723  -23.5273 C   0  0  0  0  0  0  0  0  0  0  0  0
  -12.6223    2.5167  -23.6901 C   0  0  0  0  0  0  0  0  0  0  0  0
  -13.4706    3.7516  -23.7638 C   0  0  0  0  0  0  0  0  0  0  0  0
  -12.8254    5.0960  -23.9266 C   0  0  0  0  0  0  0  0  0  0  0  0
  -11.3321    5.2053  -24.0156 C   0  0  0  0  0  0  0  0  0  0  0  0
  -10.4839    3.9704  -23.9419 C   0  0  0  0  0  0  0  0  0  0  0  0
  -11.1290    2.6261  -23.7791 C   0  0  0  0  0  0  0  0  0  0  0  0
   -5.2281    0.3069  -19.6113 C   0  0  0  0  0  0  0  0  0  0  0  0
   -6.3673   -0.5441  -19.1340 C   0  0  0  0  0  0  0  0  0  0  0  0
   -7.5066   -1.3950  -18.6566 N   0  0  0  0  0  0  0  0  0  0  0  0
  2  1  1  0  0  0
  2  3  1  0  0  0
  3  4  1  0  0  0
  4 19  1  0  0  0
 19 20  2  0  0  0
 20 21  1  0  0  0
 21 22  2  0  0  0
 22 23  1  0  0  0
 23 24  2  0  0  0
 24 25  1  0  0  0
 25 26  2  0  0  0
 26 27  1  0  0  0
 27 28  2  0  0  0
  4  5  1  0  0  0
  5  6  2  0  0  0
  5  7  1  0  0  0
  7  8  1  0  0  0
  8  9  1  0  0  0
  9 29  1  0  0  0
 29 30  1  0  0  0
 30 31  3  0  0  0
  9 10  1  0  0  0
 10 11  2  0  0  0
 10 12  1  0  0  0
 12 13  2  0  0  0
 13 14  1  0  0  0
 14 15  2  0  0  0
 15 16  1  0  0  0
 15 17  1  0  0  0
 17 18  2  0  0  0
  7  2  1  0  0  0
 18 12  1  0  0  0
 28 19  1  0  0  0
 18  7  1  0  0  0
 28 23  1  0  0  0
M  END
> <minimizedAffinity>
-7.14822

> <CNNscore>
0.3810813725

> <CNNaffinity>
5.7441892624

> <CNN_VS>
2.1890034676

> <CNNaffinity_variance>
0.0291088372

$$$$



 31 35  0  0  0  0  0  0  0  0999 V2000
   -7.2557   -0.2062  -21.1566 C   0  0  0  0  0  0  0  0  0  0  0  0
   -8.4490   -0.2905  -22.0616 C   0  0  0  0  0  0  0  0  0  0  0  0
   -9.2196    0.9959  -22.0965 C   0  0  0  0  0  0  0  0  0  0  0  0
  -10.3856    0.8127  -23.0222 N   0  0  0  0  0  0  0  0  0  0  0  0
  -10.3357   -0.5870  -23.5592 C   0  0  0  0  0  0  0  0  0  0  0  0
  -11.3113   -1.1976  -24.5211 O   0  0  0  0  0  0  0  0  0  0  0  0
   -9.1387   -1.2688  -22.9655 C   0  0  0  0  0  0  0  0  0  0  0  0
   -9.9328   -2.1336  -23.8991 C   0  0  0  0  0  0  0  0  0  0  0  0
   -9.5014   -3.5457  -24.1630 N   0  0  0  0  0  0  0  0  0  0  0  0
   -8.2759   -4.0931  -23.4934 C   0  0  0  0  0  0  0  0  0  0  0  0
   -7.8445   -5.5053  -23.7573 O   0  0  0  0  0  0  0  0  0  0  0  0
   -7.4818   -3.2284  -22.5598 C   0  0  0  0  0  0  0  0  0  0  0  0
   -6.2563   -3.7758  -21.8902 C   0  0  0  0  0  0  0  0  0  0  0  0
   -5.4622   -2.9111  -20.9566 C   0  0  0  0  0  0  0  0  0  0  0  0
   -5.8936   -1.4989  -20.6927 C   0  0  0  0  0  0  0  0  0  0  0  0
   -5.0994   -0.6341  -19.7591 F   0  0  0  0  0  0  0  0  0  0  0  0
   -7.1191   -0.9515  -21.3623 C   0  0  0  0  0  0  0  0  0  0  0  0
   -7.9132   -1.8162  -22.2958 C   0  0  0  0  0  0  0  0  0  0  0  0
  -11.4200    1.8475  -23.3527 C   0  0  0  0  0  0  0  0  0  0  0  0
  -12.7410    1.8412  -22.6421 C   0  0  0  0  0  0  0  0  0  0  0  0
  -13.7754    2.8759  -22.9727 N   0  0  0  0  0  0  0  0  0  0  0  0
  -13.4888    3.9170  -24.0139 C   0  0  0  0  0  0  0  0  0  0  0  0
  -12.1678    3.9233  -24.7245 C   0  0  0  0  0  0  0  0  0  0  0  0
  -11.8812    4.9644  -25.7657 C   0  0  0  0  0  0  0  0  0  0  0  0
  -10.5602    4.9706  -26.4763 C   0  0  0  0  0  0  0  0  0  0  0  0
   -9.5259    3.9358  -26.1457 C   0  0  0  0  0  0  0  0  0  0  0  0
   -9.8125    2.8948  -25.1045 C   0  0  0  0  0  0  0  0  0  0  0  0
  -11.1334    2.8885  -24.3940 C   0  0  0  0  0  0  0  0  0  0  0  0
  -10.2956   -4.4105  -25.0966 C   0  0  0  0  0  0  0  0  0  0  0  0
   -9.8325   -4.6119  -26.5090 C   0  0  0  0  0  0  0  0  0  0  0  0
   -9.3694   -4.8133  -27.9214 N   0  0  0  0  0  0  0  0  0  0  0  0
  2  1  1  0  0  0
  2  3  1  0  0  0
  3  4  1  0  0  0
  4 19  1  0  0  0
 19 20  2  0  0  0
 20 21  1  0  0  0
 21 22  2  0  0  0
 22 23  1  0  0  0
 23 24  2  0  0  0
 24 25  1  0  0  0
 25 26  2  0  0  0
 26 27  1  0  0  0
 27 28  2  0  0  0
  4  5  1  0  0  0
  5  6  2  0  0  0
  5  7  1  0  0  0
  7  8  1  0  0  0
  8  9  1  0  0  0
  9 29  1  0  0  0
 29 30  1  0  0  0
 30 31  3  0  0  0
  9 10  1  0  0  0
 10 11  2  0  0  0
 10 12  1  0  0  0
 12 13  2  0  0  0
 13 14  1  0  0  0
 14 15  2  0  0  0
 15 16  1  0  0  0
 15 17  1  0  0  0
 17 18  2  0  0  0
  7  2  1  0  0  0
 18 12  1  0  0  0
 28 19  1  0  0  0
 18  7  1  0  0  0
 28 23  1  0  0  0
M  END
> <minimizedAffinity>
-8.15985

> <CNNscore>
0.3701124191

> <CNNaffinity>
6.0262398720

> <CNN_VS>
2.2303862572

> <CNNaffinity_variance>
0.0998655483

$$$$



 31 35  0  0  0  0  0  0  0  0999 V2000
   -8.6627    0.7265  -25.3702 C   0  0  0  0  0  0  0  0  0  0  0  0
   -7.9849   -0.3111  -24.5251 C   0  0  0  0  0  0  0  0  0  0  0  0
   -8.4042   -1.7019  -24.8991 C   0  0  0  0  0  0  0  0  0  0  0  0
   -7.6774   -2.6615  -24.0041 N   0  0  0  0  0  0  0  0  0  0  0  0
   -6.8090   -1.8637  -23.0771 C   0  0  0  0  0  0  0  0  0  0  0  0
   -5.9086   -2.4209  -22.0146 O   0  0  0  0  0  0  0  0  0  0  0  0
   -6.9990   -0.4111  -23.3990 C   0  0  0  0  0  0  0  0  0  0  0  0
   -6.0312   -0.6668  -22.2820 C   0  0  0  0  0  0  0  0  0  0  0  0
   -5.3542    0.4838  -21.5980 N   0  0  0  0  0  0  0  0  0  0  0  0
   -5.6452    1.8901  -22.0310 C   0  0  0  0  0  0  0  0  0  0  0  0
   -4.9682    3.0407  -21.3469 O   0  0  0  0  0  0  0  0  0  0  0  0
   -6.6131    2.1459  -23.1480 C   0  0  0  0  0  0  0  0  0  0  0  0
   -6.9040    3.5523  -23.5811 C   0  0  0  0  0  0  0  0  0  0  0  0
   -7.8719    3.8080  -24.6981 C   0  0  0  0  0  0  0  0  0  0  0  0
   -8.5488    2.6574  -25.3821 C   0  0  0  0  0  0  0  0  0  0  0  0
   -9.5167    2.9132  -26.4992 F   0  0  0  0  0  0  0  0  0  0  0  0
   -8.2579    1.2511  -24.9491 C   0  0  0  0  0  0  0  0  0  0  0  0
   -7.2900    0.9953  -23.8321 C   0  0  0  0  0  0  0  0  0  0  0  0
   -7.7978   -4.1564  -24.0315 C   0  0  0  0  0  0  0  0  0  0  0  0
   -7.3198   -4.9688  -22.8647 C   0  0  0  0  0  0  0  0  0  0  0  0
   -7.4402   -6.4637  -22.8921 N   0  0  0  0  0  0  0  0  0  0  0  0
   -8.0387   -7.1461  -24.0862 C   0  0  0  0  0  0  0  0  0  0  0  0
   -8.5168   -6.3337  -25.2530 C   0  0  0  0  0  0  0  0  0  0  0  0
   -9.1154   -7.0162  -26.4472 C   0  0  0  0  0  0  0  0  0  0  0  0
   -9.5934   -6.2037  -27.6140 C   0  0  0  0  0  0  0  0  0  0  0  0
   -9.4729   -4.7089  -27.5866 C   0  0  0  0  0  0  0  0  0  0  0  0
   -8.8744   -4.0264  -26.3924 C   0  0  0  0  0  0  0  0  0  0  0  0
   -8.3964   -4.8388  -25.2257 C   0  0  0  0  0  0  0  0  0  0  0  0
   -4.3863    0.2280  -20.4809 C   0  0  0  0  0  0  0  0  0  0  0  0
   -4.8919   -0.1837  -19.1300 C   0  0  0  0  0  0  0  0  0  0  0  0
   -5.3974   -0.5953  -17.7791 N   0  0  0  0  0  0  0  0  0  0  0  0
  2  1  1  0  0  0
  2  3  1  0  0  0
  3  4  1  0  0  0
  4 19  1  0  0  0
 19 20  2  0  0  0
 20 21  1  0  0  0
 21 22  2  0  0  0
 22 23  1  0  0  0
 23 24  2  0  0  0
 24 25  1  0  0  0
 25 26  2  0  0  0
 26 27  1  0  0  0
 27 28  2  0  0  0
  4  5  1  0  0  0
  5  6  2  0  0  0
  5  7  1  0  0  0
  7  8  1  0  0  0
  8  9  1  0  0  0
  9 29  1  0  0  0
 29 30  1  0  0  0
 30 31  3  0  0  0
  9 10  1  0  0  0
 10 11  2  0  0  0
 10 12  1  0  0  0
 12 13  2  0  0  0
 13 14  1  0  0  0
 14 15  2  0  0  0
 15 16  1  0  0  0
 15 17  1  0  0  0
 17 18  2  0  0  0
  7  2  1  0  0  0
 18 12  1  0  0  0
 28 19  1  0  0  0
 18  7  1  0  0  0
 28 23  1  0  0  0
M  END
> <minimizedAffinity>
-6.88968

> <CNNscore>
0.2995490134

> <CNNaffinity>
5.9128828049

> <CNN_VS>
1.7711981535

> <CNNaffinity_variance>
0.2242830098

$$$$



 31 35  0  0  0  0  0  0  0  0999 V2000
  -10.1699    4.0417  -24.0424 C   0  0  0  0  0  0  0  0  0  0  0  0
   -9.5251    2.7125  -23.7823 C   0  0  0  0  0  0  0  0  0  0  0  0
   -8.0292    2.8134  -23.7351 C   0  0  0  0  0  0  0  0  0  0  0  0
   -7.4803    1.4425  -23.4720 N   0  0  0  0  0  0  0  0  0  0  0  0
   -8.6369    0.4944  -23.3565 C   0  0  0  0  0  0  0  0  0  0  0  0
   -8.5457   -0.9799  -23.0951 O   0  0  0  0  0  0  0  0  0  0  0  0
   -9.9006    1.2793  -23.5483 C   0  0  0  0  0  0  0  0  0  0  0  0
  -10.1225   -0.1837  -23.3024 C   0  0  0  0  0  0  0  0  0  0  0  0
  -11.5170   -0.7352  -23.2666 N   0  0  0  0  0  0  0  0  0  0  0  0
  -12.6896    0.1763  -23.4765 C   0  0  0  0  0  0  0  0  0  0  0  0
  -14.0841   -0.3752  -23.4406 O   0  0  0  0  0  0  0  0  0  0  0  0
  -12.4678    1.6393  -23.7224 C   0  0  0  0  0  0  0  0  0  0  0  0
  -13.6404    2.5508  -23.9324 C   0  0  0  0  0  0  0  0  0  0  0  0
  -13.4186    4.0137  -24.1783 C   0  0  0  0  0  0  0  0  0  0  0  0
  -12.0241    4.5652  -24.2141 C   0  0  0  0  0  0  0  0  0  0  0  0
  -11.8023    6.0283  -24.4600 F   0  0  0  0  0  0  0  0  0  0  0  0
  -10.8515    3.6538  -24.0042 C   0  0  0  0  0  0  0  0  0  0  0  0
  -11.0733    2.1908  -23.7583 C   0  0  0  0  0  0  0  0  0  0  0  0
   -6.0295    1.0828  -23.3463 C   0  0  0  0  0  0  0  0  0  0  0  0
   -5.3210    1.2702  -22.0376 C   0  0  0  0  0  0  0  0  0  0  0  0
   -3.8701    0.9105  -21.9119 N   0  0  0  0  0  0  0  0  0  0  0  0
   -3.1279    0.3635  -23.0951 C   0  0  0  0  0  0  0  0  0  0  0  0
   -3.8365    0.1761  -24.4038 C   0  0  0  0  0  0  0  0  0  0  0  0
   -3.0941   -0.3710  -25.5870 C   0  0  0  0  0  0  0  0  0  0  0  0
   -3.8028   -0.5583  -26.8957 C   0  0  0  0  0  0  0  0  0  0  0  0
   -5.2535   -0.1987  -27.0213 C   0  0  0  0  0  0  0  0  0  0  0  0
   -5.9958    0.3484  -25.8382 C   0  0  0  0  0  0  0  0  0  0  0  0
   -5.2873    0.5358  -24.5295 C   0  0  0  0  0  0  0  0  0  0  0  0
  -11.7388   -2.1982  -23.0207 C   0  0  0  0  0  0  0  0  0  0  0  0
  -12.8514   -2.6472  -22.1204 C   0  0  0  0  0  0  0  0  0  0  0  0
  -13.9640   -3.0962  -21.2202 N   0  0  0  0  0  0  0  0  0  0  0  0
  2  1  1  0  0  0
  2  3  1  0  0  0
  3  4  1  0  0  0
  4 19  1  0  0  0
 19 20  2  0  0  0
 20 21  1  0  0  0
 21 22  2  0  0  0
 22 23  1  0  0  0
 23 24  2  0  0  0
 24 25  1  0  0  0
 25 26  2  0  0  0
 26 27  1  0  0  0
 27 28  2  0  0  0
  4  5  1  0  0  0
  5  6  2  0  0  0
  5  7  1  0  0  0
  7  8  1  0  0  0
  8  9  1  0  0  0
  9 29  1  0  0  0
 29 30  1  0  0  0
 30 31  3  0  0  0
  9 10  1  0  0  0
 10 11  2  0  0  0
 10 12  1  0  0  0
 12 13  2  0  0  0
 13 14  1  0  0  0
 14 15  2  0  0  0
 15 16  1  0  0  0
 15 17  1  0  0  0
 17 18  2  0  0  0
  7  2  1  0  0  0
 18 12  1  0  0  0
 28 19  1  0  0  0
 18  7  1  0  0  0
 28 23  1  0  0  0
M  END
> <minimizedAffinity>
-6.92453

> <CNNscore>
0.2835715115

> <CNNaffinity>
5.7226533890

> <CNN_VS>
1.6227815151

> <CNNaffinity_variance>
0.2012034357

$$$$
