


 37 40  0  0  0  0  0  0  0  0999 V2000
   -6.6578   -1.7617  -22.1003 N   0  0  0  0  0  0  0  0  0  0  0  0
   -6.3261   -3.2158  -22.2603 C   0  0  0  0  0  0  0  0  0  0  0  0
   -5.5981   -3.9435  -21.1692 O   0  0  0  0  0  0  0  0  0  0  0  0
   -6.7224   -3.9422  -23.5115 C   0  0  0  0  0  0  0  0  0  0  0  0
   -5.6812   -4.6406  -24.3349 C   0  0  0  0  0  0  0  0  0  0  0  0
   -6.0774   -5.3670  -25.5860 N   0  0  0  0  0  0  0  0  0  0  0  0
   -7.5149   -5.3950  -26.0137 C   0  0  0  0  0  0  0  0  0  0  0  0
   -7.9111   -6.1214  -27.2649 O   0  0  0  0  0  0  0  0  0  0  0  0
   -8.5561   -4.6965  -25.1903 C   0  0  0  0  0  0  0  0  0  0  0  0
   -9.9936   -4.7245  -25.6180 C   0  0  0  0  0  0  0  0  0  0  0  0
  -11.0347   -4.0260  -24.7945 C   0  0  0  0  0  0  0  0  0  0  0  0
  -10.6385   -3.2996  -23.5434 C   0  0  0  0  0  0  0  0  0  0  0  0
  -11.6797   -2.6012  -22.7199 Cl  0  0  0  0  0  0  0  0  0  0  0  0
   -9.2011   -3.2717  -23.1157 C   0  0  0  0  0  0  0  0  0  0  0  0
   -8.1599   -3.9701  -23.9391 C   0  0  0  0  0  0  0  0  0  0  0  0
   -5.0362   -6.0655  -26.4095 C   0  0  0  0  0  0  0  0  0  0  0  0
   -3.5825   -5.7686  -26.1893 C   0  0  0  0  0  0  0  0  0  0  0  0
   -3.0265   -4.4258  -26.5606 O   0  0  0  0  0  0  0  0  0  0  0  0
   -2.6847   -6.8145  -25.5977 N   0  0  0  0  0  0  0  0  0  0  0  0
   -1.2309   -6.5177  -25.3775 C   0  0  0  0  0  0  0  0  0  0  0  0
   -3.0496   -7.6958  -25.3540 H   0  0  0  0  0  0  0  0  0  0  0  0
   -6.2616   -1.0354  -20.8491 C   0  0  0  0  0  0  0  0  0  0  0  0
   -7.1112   -1.1442  -19.6177 C   0  0  0  0  0  0  0  0  0  0  0  0
   -6.7149   -0.4178  -18.3665 N   0  0  0  0  0  0  0  0  0  0  0  0
   -5.4691    0.4174  -18.3469 C   0  0  0  0  0  0  0  0  0  0  0  0
   -4.6196    0.5263  -19.5783 C   0  0  0  0  0  0  0  0  0  0  0  0
   -3.3737    1.3615  -19.5586 C   0  0  0  0  0  0  0  0  0  0  0  0
   -2.5242    1.4704  -20.7901 C   0  0  0  0  0  0  0  0  0  0  0  0
   -2.9205    0.7440  -22.0412 C   0  0  0  0  0  0  0  0  0  0  0  0
   -4.1662   -0.0913  -22.0609 C   0  0  0  0  0  0  0  0  0  0  0  0
   -5.0158   -0.2001  -20.8294 C   0  0  0  0  0  0  0  0  0  0  0  0
   -7.3859   -1.0340  -23.1914 C   0  0  0  0  0  0  0  0  0  0  0  0
   -6.3546    0.9576  -24.5029 C   0  0  0  0  0  0  0  0  0  0  0  0
   -7.1899    0.4425  -23.3684 C   0  0  0  0  0  0  0  0  0  0  0  0
   -7.8293    1.4040  -22.4110 C   0  0  0  0  0  0  0  0  0  0  0  0
   -9.1340    1.0559  -21.7577 O   0  0  0  0  0  0  0  0  0  0  0  0
   -7.1641    2.7137  -22.1069 O   0  0  0  0  0  0  0  0  0  0  0  0
 33 34  2  0  0  0
 34 32  1  0  0  0
 32  1  1  0  0  0
  1  2  1  0  0  0
  2  3  2  0  0  0
  4  2  1  0  0  0
  4  5  1  0  0  0
  5  6  1  0  0  0
  6 16  1  0  0  0
 16 17  1  0  0  0
 17 18  2  0  0  0
 17 19  1  0  0  0
 19 20  1  0  0  0
  6  7  1  0  0  0
  7  8  2  0  0  0
  7  9  1  0  0  0
  9 10  2  0  0  0
 10 11  1  0  0  0
 11 12  2  0  0  0
 12 13  1  0  0  0
 12 14  1  0  0  0
 14 15  2  0  0  0
  1 22  1  0  0  0
 22 23  2  0  0  0
 23 24  1  0  0  0
 24 25  2  0  0  0
 25 26  1  0  0  0
 26 27  2  0  0  0
 27 28  1  0  0  0
 28 29  2  0  0  0
 29 30  1  0  0  0
 30 31  2  0  0  0
 34 35  1  0  0  0
 35 36  2  0  0  0
 35 37  1  0  0  0
 15  4  1  0  0  0
 31 22  1  0  0  0
 15  9  1  0  0  0
 31 26  1  0  0  0
 19 21  1  0  0  0
M  CHG 1  37  -1
M  END
> <minimizedAffinity>
-7.77978

> <CNNscore>
0.5631077886

> <CNNaffinity>
6.4489502907

> <CNN_VS>
3.6314542294

> <CNNaffinity_variance>
0.0444651321

$$$$



 37 40  0  0  0  0  0  0  0  0999 V2000
   -8.2503   -1.9272  -23.4000 N   0  0  0  0  0  0  0  0  0  0  0  0
   -8.4817   -1.0993  -24.6292 C   0  0  0  0  0  0  0  0  0  0  0  0
   -8.1614   -1.6607  -25.9829 O   0  0  0  0  0  0  0  0  0  0  0  0
   -9.0335    0.2900  -24.5048 C   0  0  0  0  0  0  0  0  0  0  0  0
   -8.1753    1.4713  -24.8482 C   0  0  0  0  0  0  0  0  0  0  0  0
   -8.7270    2.8606  -24.7239 N   0  0  0  0  0  0  0  0  0  0  0  0
  -10.1369    3.0685  -24.2561 C   0  0  0  0  0  0  0  0  0  0  0  0
  -10.6887    4.4578  -24.1317 O   0  0  0  0  0  0  0  0  0  0  0  0
  -10.9952    1.8872  -23.9126 C   0  0  0  0  0  0  0  0  0  0  0  0
  -12.4051    2.0952  -23.4448 C   0  0  0  0  0  0  0  0  0  0  0  0
  -13.2632    0.9138  -23.1014 C   0  0  0  0  0  0  0  0  0  0  0  0
  -12.7115   -0.4755  -23.2258 C   0  0  0  0  0  0  0  0  0  0  0  0
  -13.5698   -1.6568  -22.8824 Cl  0  0  0  0  0  0  0  0  0  0  0  0
  -11.3016   -0.6834  -23.6936 C   0  0  0  0  0  0  0  0  0  0  0  0
  -10.4434    0.4979  -24.0370 C   0  0  0  0  0  0  0  0  0  0  0  0
   -7.8688    4.0419  -25.0673 C   0  0  0  0  0  0  0  0  0  0  0  0
   -7.0892    4.7403  -23.9928 C   0  0  0  0  0  0  0  0  0  0  0  0
   -5.6223    4.9950  -24.1756 O   0  0  0  0  0  0  0  0  0  0  0  0
   -7.7765    5.1839  -22.7356 N   0  0  0  0  0  0  0  0  0  0  0  0
   -6.9969    5.8823  -21.6610 C   0  0  0  0  0  0  0  0  0  0  0  0
   -8.7393    5.0167  -22.6156 H   0  0  0  0  0  0  0  0  0  0  0  0
   -7.6986   -3.3165  -23.5244 C   0  0  0  0  0  0  0  0  0  0  0  0
   -6.4132   -3.6770  -22.8405 C   0  0  0  0  0  0  0  0  0  0  0  0
   -5.8614   -5.0663  -22.9649 N   0  0  0  0  0  0  0  0  0  0  0  0
   -6.5951   -6.0951  -23.7732 C   0  0  0  0  0  0  0  0  0  0  0  0
   -7.8805   -5.7346  -24.4571 C   0  0  0  0  0  0  0  0  0  0  0  0
   -8.6142   -6.7634  -25.2655 C   0  0  0  0  0  0  0  0  0  0  0  0
   -9.8996   -6.4028  -25.9494 C   0  0  0  0  0  0  0  0  0  0  0  0
  -10.4513   -5.0135  -25.8250 C   0  0  0  0  0  0  0  0  0  0  0  0
   -9.7177   -3.9848  -25.0167 C   0  0  0  0  0  0  0  0  0  0  0  0
   -8.4322   -4.3453  -24.3327 C   0  0  0  0  0  0  0  0  0  0  0  0
   -8.5707   -1.3659  -22.0464 C   0  0  0  0  0  0  0  0  0  0  0  0
   -7.0573    0.7164  -21.6952 C   0  0  0  0  0  0  0  0  0  0  0  0
   -7.5130   -0.6459  -21.2635 C   0  0  0  0  0  0  0  0  0  0  0  0
   -6.9110   -1.2883  -20.0491 C   0  0  0  0  0  0  0  0  0  0  0  0
   -5.7995   -2.2841  -20.2004 O   0  0  0  0  0  0  0  0  0  0  0  0
   -7.4206   -0.9349  -18.6832 O   0  0  0  0  0  0  0  0  0  0  0  0
 33 34  2  0  0  0
 34 32  1  0  0  0
 32  1  1  0  0  0
  1  2  1  0  0  0
  2  3  2  0  0  0
  4  2  1  0  0  0
  4  5  1  0  0  0
  5  6  1  0  0  0
  6 16  1  0  0  0
 16 17  1  0  0  0
 17 18  2  0  0  0
 17 19  1  0  0  0
 19 20  1  0  0  0
  6  7  1  0  0  0
  7  8  2  0  0  0
  7  9  1  0  0  0
  9 10  2  0  0  0
 10 11  1  0  0  0
 11 12  2  0  0  0
 12 13  1  0  0  0
 12 14  1  0  0  0
 14 15  2  0  0  0
  1 22  1  0  0  0
 22 23  2  0  0  0
 23 24  1  0  0  0
 24 25  2  0  0  0
 25 26  1  0  0  0
 26 27  2  0  0  0
 27 28  1  0  0  0
 28 29  2  0  0  0
 29 30  1  0  0  0
 30 31  2  0  0  0
 34 35  1  0  0  0
 35 36  2  0  0  0
 35 37  1  0  0  0
 15  4  1  0  0  0
 31 22  1  0  0  0
 15  9  1  0  0  0
 31 26  1  0  0  0
 19 21  1  0  0  0
M  CHG 1  37  -1
M  END
> <minimizedAffinity>
-7.44153

> <CNNscore>
0.4067144692

> <CNNaffinity>
6.4329786301

> <CNN_VS>
2.6163854599

> <CNNaffinity_variance>
0.2756148577

$$$$



 37 40  0  0  0  0  0  0  0  0999 V2000
   -6.2665   -2.5632  -22.2570 N   0  0  0  0  0  0  0  0  0  0  0  0
   -5.9924   -4.0355  -22.3403 C   0  0  0  0  0  0  0  0  0  0  0  0
   -5.4282   -4.7616  -21.1552 O   0  0  0  0  0  0  0  0  0  0  0  0
   -6.2826   -4.7819  -23.6087 C   0  0  0  0  0  0  0  0  0  0  0  0
   -7.4729   -4.4099  -24.4422 C   0  0  0  0  0  0  0  0  0  0  0  0
   -7.7630   -5.1563  -25.7106 N   0  0  0  0  0  0  0  0  0  0  0  0
   -6.8629   -6.2746  -26.1454 C   0  0  0  0  0  0  0  0  0  0  0  0
   -7.1531   -7.0209  -27.4138 O   0  0  0  0  0  0  0  0  0  0  0  0
   -5.6725   -6.6466  -25.3119 C   0  0  0  0  0  0  0  0  0  0  0  0
   -4.7724   -7.7649  -25.7467 C   0  0  0  0  0  0  0  0  0  0  0  0
   -3.5821   -8.1368  -24.9132 C   0  0  0  0  0  0  0  0  0  0  0  0
   -3.2920   -7.3905  -23.6448 C   0  0  0  0  0  0  0  0  0  0  0  0
   -2.1016   -7.7625  -22.8113 Cl  0  0  0  0  0  0  0  0  0  0  0  0
   -4.1921   -6.2722  -23.2100 C   0  0  0  0  0  0  0  0  0  0  0  0
   -5.3824   -5.9002  -24.0435 C   0  0  0  0  0  0  0  0  0  0  0  0
   -8.9534   -4.7843  -26.5441 C   0  0  0  0  0  0  0  0  0  0  0  0
   -8.9046   -3.5682  -27.4208 C   0  0  0  0  0  0  0  0  0  0  0  0
  -10.0656   -3.2386  -28.3115 O   0  0  0  0  0  0  0  0  0  0  0  0
   -7.6947   -2.6817  -27.4068 N   0  0  0  0  0  0  0  0  0  0  0  0
   -7.6458   -1.4655  -28.2835 C   0  0  0  0  0  0  0  0  0  0  0  0
   -6.9327   -2.8980  -26.8222 H   0  0  0  0  0  0  0  0  0  0  0  0
   -5.9763   -1.8168  -20.9887 C   0  0  0  0  0  0  0  0  0  0  0  0
   -6.7106   -2.1662  -19.7281 C   0  0  0  0  0  0  0  0  0  0  0  0
   -6.4204   -1.4198  -18.4598 N   0  0  0  0  0  0  0  0  0  0  0  0
   -5.3959   -0.3241  -18.4519 C   0  0  0  0  0  0  0  0  0  0  0  0
   -4.6617    0.0252  -19.7124 C   0  0  0  0  0  0  0  0  0  0  0  0
   -3.6373    1.1209  -19.7046 C   0  0  0  0  0  0  0  0  0  0  0  0
   -2.9031    1.4703  -20.9650 C   0  0  0  0  0  0  0  0  0  0  0  0
   -3.1933    0.7239  -22.2334 C   0  0  0  0  0  0  0  0  0  0  0  0
   -4.2176   -0.3718  -22.2413 C   0  0  0  0  0  0  0  0  0  0  0  0
   -4.9519   -0.7211  -20.9808 C   0  0  0  0  0  0  0  0  0  0  0  0
   -6.8307   -1.8371  -23.4422 C   0  0  0  0  0  0  0  0  0  0  0  0
   -7.6679    0.5789  -22.9820 C   0  0  0  0  0  0  0  0  0  0  0  0
   -7.9593   -0.8661  -23.2593 C   0  0  0  0  0  0  0  0  0  0  0  0
   -9.3792   -1.3402  -23.3536 C   0  0  0  0  0  0  0  0  0  0  0  0
  -10.1525   -1.6458  -22.1052 O   0  0  0  0  0  0  0  0  0  0  0  0
  -10.0260   -1.5088  -24.6966 O   0  0  0  0  0  0  0  0  0  0  0  0
 33 34  2  0  0  0
 34 32  1  0  0  0
 32  1  1  0  0  0
  1  2  1  0  0  0
  2  3  2  0  0  0
  4  2  1  0  0  0
  4  5  1  0  0  0
  5  6  1  0  0  0
  6 16  1  0  0  0
 16 17  1  0  0  0
 17 18  2  0  0  0
 17 19  1  0  0  0
 19 20  1  0  0  0
  6  7  1  0  0  0
  7  8  2  0  0  0
  7  9  1  0  0  0
  9 10  2  0  0  0
 10 11  1  0  0  0
 11 12  2  0  0  0
 12 13  1  0  0  0
 12 14  1  0  0  0
 14 15  2  0  0  0
  1 22  1  0  0  0
 22 23  2  0  0  0
 23 24  1  0  0  0
 24 25  2  0  0  0
 25 26  1  0  0  0
 26 27  2  0  0  0
 27 28  1  0  0  0
 28 29  2  0  0  0
 29 30  1  0  0  0
 30 31  2  0  0  0
 34 35  1  0  0  0
 35 36  2  0  0  0
 35 37  1  0  0  0
 15  4  1  0  0  0
 31 22  1  0  0  0
 15  9  1  0  0  0
 31 26  1  0  0  0
 19 21  1  0  0  0
M  CHG 1  37  -1
M  END
> <minimizedAffinity>
-7.23719

> <CNNscore>
0.3862611651

> <CNNaffinity>
6.2542147636

> <CNN_VS>
2.4157602787

> <CNNaffinity_variance>
0.0378799252

$$$$



 37 40  0  0  0  0  0  0  0  0999 V2000
   -6.2774   -1.3019  -22.3367 N   0  0  0  0  0  0  0  0  0  0  0  0
   -6.2743   -2.7867  -22.5493 C   0  0  0  0  0  0  0  0  0  0  0  0
   -5.8775   -3.7038  -21.4305 O   0  0  0  0  0  0  0  0  0  0  0  0
   -6.6682   -3.3545  -23.8806 C   0  0  0  0  0  0  0  0  0  0  0  0
   -5.6116   -3.7711  -24.8605 C   0  0  0  0  0  0  0  0  0  0  0  0
   -6.0055   -4.3389  -26.1918 N   0  0  0  0  0  0  0  0  0  0  0  0
   -7.4558   -4.4901  -26.5433 C   0  0  0  0  0  0  0  0  0  0  0  0
   -7.8496   -5.0580  -27.8747 O   0  0  0  0  0  0  0  0  0  0  0  0
   -8.5124   -4.0735  -25.5634 C   0  0  0  0  0  0  0  0  0  0  0  0
   -9.9628   -4.2248  -25.9149 C   0  0  0  0  0  0  0  0  0  0  0  0
  -11.0193   -3.8082  -24.9351 C   0  0  0  0  0  0  0  0  0  0  0  0
  -10.6255   -3.2403  -23.6037 C   0  0  0  0  0  0  0  0  0  0  0  0
  -11.6821   -2.8237  -22.6239 Cl  0  0  0  0  0  0  0  0  0  0  0  0
   -9.1751   -3.0891  -23.2522 C   0  0  0  0  0  0  0  0  0  0  0  0
   -8.1186   -3.5057  -24.2321 C   0  0  0  0  0  0  0  0  0  0  0  0
   -4.9488   -4.7555  -27.1717 C   0  0  0  0  0  0  0  0  0  0  0  0
   -3.5841   -4.1361  -27.1115 C   0  0  0  0  0  0  0  0  0  0  0  0
   -2.4657   -4.8519  -26.4138 O   0  0  0  0  0  0  0  0  0  0  0  0
   -3.3377   -2.8009  -27.7491 N   0  0  0  0  0  0  0  0  0  0  0  0
   -1.9729   -2.1814  -27.6889 C   0  0  0  0  0  0  0  0  0  0  0  0
   -4.0718   -2.3311  -28.2070 H   0  0  0  0  0  0  0  0  0  0  0  0
   -5.8836   -0.7340  -21.0053 C   0  0  0  0  0  0  0  0  0  0  0  0
   -6.7231   -1.0116  -19.7936 C   0  0  0  0  0  0  0  0  0  0  0  0
   -6.3293   -0.4437  -18.4622 N   0  0  0  0  0  0  0  0  0  0  0  0
   -5.0959    0.4016  -18.3426 C   0  0  0  0  0  0  0  0  0  0  0  0
   -4.2564    0.6791  -19.5543 C   0  0  0  0  0  0  0  0  0  0  0  0
   -3.0231    1.5244  -19.4347 C   0  0  0  0  0  0  0  0  0  0  0  0
   -2.1836    1.8019  -20.6464 C   0  0  0  0  0  0  0  0  0  0  0  0
   -2.5774    1.2341  -21.9777 C   0  0  0  0  0  0  0  0  0  0  0  0
   -3.8107    0.3888  -22.0974 C   0  0  0  0  0  0  0  0  0  0  0  0
   -4.6503    0.1113  -20.8856 C   0  0  0  0  0  0  0  0  0  0  0  0
   -6.6743   -0.3848  -23.4554 C   0  0  0  0  0  0  0  0  0  0  0  0
   -8.3961    1.1586  -22.2708 C   0  0  0  0  0  0  0  0  0  0  0  0
   -8.0136    0.2902  -23.4326 C   0  0  0  0  0  0  0  0  0  0  0  0
   -8.9704    0.0969  -24.5715 C   0  0  0  0  0  0  0  0  0  0  0  0
  -10.4465    0.2329  -24.3423 O   0  0  0  0  0  0  0  0  0  0  0  0
   -8.4510   -0.2326  -25.9396 O   0  0  0  0  0  0  0  0  0  0  0  0
 33 34  2  0  0  0
 34 32  1  0  0  0
 32  1  1  0  0  0
  1  2  1  0  0  0
  2  3  2  0  0  0
  4  2  1  0  0  0
  4  5  1  0  0  0
  5  6  1  0  0  0
  6 16  1  0  0  0
 16 17  1  0  0  0
 17 18  2  0  0  0
 17 19  1  0  0  0
 19 20  1  0  0  0
  6  7  1  0  0  0
  7  8  2  0  0  0
  7  9  1  0  0  0
  9 10  2  0  0  0
 10 11  1  0  0  0
 11 12  2  0  0  0
 12 13  1  0  0  0
 12 14  1  0  0  0
 14 15  2  0  0  0
  1 22  1  0  0  0
 22 23  2  0  0  0
 23 24  1  0  0  0
 24 25  2  0  0  0
 25 26  1  0  0  0
 26 27  2  0  0  0
 27 28  1  0  0  0
 28 29  2  0  0  0
 29 30  1  0  0  0
 30 31  2  0  0  0
 34 35  1  0  0  0
 35 36  2  0  0  0
 35 37  1  0  0  0
 15  4  1  0  0  0
 31 22  1  0  0  0
 15  9  1  0  0  0
 31 26  1  0  0  0
 19 21  1  0  0  0
M  CHG 1  37  -1
M  END
> <minimizedAffinity>
-7.40108

> <CNNscore>
0.3607889712

> <CNNaffinity>
6.0631546974

> <CNN_VS>
2.1875193119

> <CNNaffinity_variance>
0.0769443884

$$$$



 37 40  0  0  0  0  0  0  0  0999 V2000
   -7.6592   -3.2911  -24.3000 N   0  0  0  0  0  0  0  0  0  0  0  0
   -7.8035   -2.2271  -23.2527 C   0  0  0  0  0  0  0  0  0  0  0  0
   -7.3179   -2.4787  -21.8559 O   0  0  0  0  0  0  0  0  0  0  0  0
   -8.4334   -0.9113  -23.6020 C   0  0  0  0  0  0  0  0  0  0  0  0
   -7.5811    0.2219  -24.0913 C   0  0  0  0  0  0  0  0  0  0  0  0
   -8.2110    1.5376  -24.4406 N   0  0  0  0  0  0  0  0  0  0  0  0
   -9.6933    1.7201  -24.3007 C   0  0  0  0  0  0  0  0  0  0  0  0
  -10.3232    3.0359  -24.6501 O   0  0  0  0  0  0  0  0  0  0  0  0
  -10.5457    0.5869  -23.8115 C   0  0  0  0  0  0  0  0  0  0  0  0
  -12.0279    0.7695  -23.6716 C   0  0  0  0  0  0  0  0  0  0  0  0
  -12.8802   -0.3637  -23.1823 C   0  0  0  0  0  0  0  0  0  0  0  0
  -12.2503   -1.6795  -22.8330 C   0  0  0  0  0  0  0  0  0  0  0  0
  -13.1027   -2.8127  -22.3437 Cl  0  0  0  0  0  0  0  0  0  0  0  0
  -10.7680   -1.8620  -22.9729 C   0  0  0  0  0  0  0  0  0  0  0  0
   -9.9157   -0.7288  -23.4621 C   0  0  0  0  0  0  0  0  0  0  0  0
   -7.3586    2.6708  -24.9299 C   0  0  0  0  0  0  0  0  0  0  0  0
   -6.8358    3.6889  -23.9604 C   0  0  0  0  0  0  0  0  0  0  0  0
   -5.3907    4.0892  -23.9995 O   0  0  0  0  0  0  0  0  0  0  0  0
   -7.7581    4.3068  -22.9516 N   0  0  0  0  0  0  0  0  0  0  0  0
   -7.2353    5.3250  -21.9820 C   0  0  0  0  0  0  0  0  0  0  0  0
   -8.7066    4.0441  -22.9259 H   0  0  0  0  0  0  0  0  0  0  0  0
   -7.0292   -4.6068  -23.9507 C   0  0  0  0  0  0  0  0  0  0  0  0
   -7.6567   -5.4858  -22.9096 C   0  0  0  0  0  0  0  0  0  0  0  0
   -7.0267   -6.8016  -22.5603 N   0  0  0  0  0  0  0  0  0  0  0  0
   -5.7694   -7.2383  -23.2520 C   0  0  0  0  0  0  0  0  0  0  0  0
   -5.1420   -6.3593  -24.2930 C   0  0  0  0  0  0  0  0  0  0  0  0
   -3.8847   -6.7960  -24.9848 C   0  0  0  0  0  0  0  0  0  0  0  0
   -3.2574   -5.9170  -26.0258 C   0  0  0  0  0  0  0  0  0  0  0  0
   -3.8873   -4.6013  -26.3751 C   0  0  0  0  0  0  0  0  0  0  0  0
   -5.1445   -4.1646  -25.6835 C   0  0  0  0  0  0  0  0  0  0  0  0
   -5.7720   -5.0436  -24.6424 C   0  0  0  0  0  0  0  0  0  0  0  0
   -8.1448   -3.0394  -25.6968 C   0  0  0  0  0  0  0  0  0  0  0  0
  -10.3047   -4.4238  -25.2871 C   0  0  0  0  0  0  0  0  0  0  0  0
   -9.3178   -3.8055  -26.2325 C   0  0  0  0  0  0  0  0  0  0  0  0
   -9.5040   -3.9533  -27.7135 C   0  0  0  0  0  0  0  0  0  0  0  0
   -9.6892   -2.7368  -28.5712 O   0  0  0  0  0  0  0  0  0  0  0  0
   -9.5048   -5.3177  -28.3368 O   0  0  0  0  0  0  0  0  0  0  0  0
 33 34  2  0  0  0
 34 32  1  0  0  0
 32  1  1  0  0  0
  1  2  1  0  0  0
  2  3  2  0  0  0
  4  2  1  0  0  0
  4  5  1  0  0  0
  5  6  1  0  0  0
  6 16  1  0  0  0
 16 17  1  0  0  0
 17 18  2  0  0  0
 17 19  1  0  0  0
 19 20  1  0  0  0
  6  7  1  0  0  0
  7  8  2  0  0  0
  7  9  1  0  0  0
  9 10  2  0  0  0
 10 11  1  0  0  0
 11 12  2  0  0  0
 12 13  1  0  0  0
 12 14  1  0  0  0
 14 15  2  0  0  0
  1 22  1  0  0  0
 22 23  2  0  0  0
 23 24  1  0  0  0
 24 25  2  0  0  0
 25 26  1  0  0  0
 26 27  2  0  0  0
 27 28  1  0  0  0
 28 29  2  0  0  0
 29 30  1  0  0  0
 30 31  2  0  0  0
 34 35  1  0  0  0
 35 36  2  0  0  0
 35 37  1  0  0  0
 15  4  1  0  0  0
 31 22  1  0  0  0
 15  9  1  0  0  0
 31 26  1  0  0  0
 19 21  1  0  0  0
M  CHG 1  37  -1
M  END
> <minimizedAffinity>
-7.17150

> <CNNscore>
0.2830920219

> <CNNaffinity>
6.0927391052

> <CNN_VS>
1.7248058319

> <CNNaffinity_variance>
0.1755529940

$$$$



 37 40  0  0  0  0  0  0  0  0999 V2000
   -6.6891    1.1799  -22.6899 N   0  0  0  0  0  0  0  0  0  0  0  0
   -7.3990    0.7440  -23.9372 C   0  0  0  0  0  0  0  0  0  0  0  0
   -7.0780    1.3958  -25.2496 O   0  0  0  0  0  0  0  0  0  0  0  0
   -8.4299   -0.3437  -23.8723 C   0  0  0  0  0  0  0  0  0  0  0  0
   -8.0155   -1.7788  -24.0089 C   0  0  0  0  0  0  0  0  0  0  0  0
   -9.0464   -2.8665  -23.9440 N   0  0  0  0  0  0  0  0  0  0  0  0
  -10.4916   -2.5191  -23.7426 C   0  0  0  0  0  0  0  0  0  0  0  0
  -11.5225   -3.6068  -23.6777 O   0  0  0  0  0  0  0  0  0  0  0  0
  -10.9060   -1.0839  -23.6060 C   0  0  0  0  0  0  0  0  0  0  0  0
  -12.3512   -0.7364  -23.4045 C   0  0  0  0  0  0  0  0  0  0  0  0
  -12.7655    0.6987  -23.2679 C   0  0  0  0  0  0  0  0  0  0  0  0
  -11.7346    1.7864  -23.3328 C   0  0  0  0  0  0  0  0  0  0  0  0
  -12.1490    3.2216  -23.1962 Cl  0  0  0  0  0  0  0  0  0  0  0  0
  -10.2894    1.4390  -23.5343 C   0  0  0  0  0  0  0  0  0  0  0  0
   -9.8751    0.0038  -23.6709 C   0  0  0  0  0  0  0  0  0  0  0  0
   -8.6320   -4.3017  -24.0806 C   0  0  0  0  0  0  0  0  0  0  0  0
   -8.7635   -4.9977  -25.4028 C   0  0  0  0  0  0  0  0  0  0  0  0
   -7.5369   -5.3399  -26.1955 O   0  0  0  0  0  0  0  0  0  0  0  0
  -10.1215   -5.3515  -25.9323 N   0  0  0  0  0  0  0  0  0  0  0  0
  -10.2531   -6.0476  -27.2546 C   0  0  0  0  0  0  0  0  0  0  0  0
  -10.9266   -5.1269  -25.4121 H   0  0  0  0  0  0  0  0  0  0  0  0
   -5.6582    2.2676  -22.7548 C   0  0  0  0  0  0  0  0  0  0  0  0
   -5.7480    3.3237  -23.8163 C   0  0  0  0  0  0  0  0  0  0  0  0
   -4.7171    4.4114  -23.8812 N   0  0  0  0  0  0  0  0  0  0  0  0
   -3.5964    4.4430  -22.8845 C   0  0  0  0  0  0  0  0  0  0  0  0
   -3.5067    3.3870  -21.8231 C   0  0  0  0  0  0  0  0  0  0  0  0
   -2.3861    3.4186  -20.8264 C   0  0  0  0  0  0  0  0  0  0  0  0
   -2.2963    2.3626  -19.7650 C   0  0  0  0  0  0  0  0  0  0  0  0
   -3.3272    1.2749  -19.7001 C   0  0  0  0  0  0  0  0  0  0  0  0
   -4.4478    1.2433  -20.6966 C   0  0  0  0  0  0  0  0  0  0  0  0
   -4.5376    2.2993  -21.7582 C   0  0  0  0  0  0  0  0  0  0  0  0
   -7.0100    0.5281  -21.3775 C   0  0  0  0  0  0  0  0  0  0  0  0
   -5.5259   -1.5122  -21.9974 C   0  0  0  0  0  0  0  0  0  0  0  0
   -6.3189   -0.7432  -20.9826 C   0  0  0  0  0  0  0  0  0  0  0  0
   -6.4207   -1.2456  -19.5730 C   0  0  0  0  0  0  0  0  0  0  0  0
   -7.3478   -0.5751  -18.6030 O   0  0  0  0  0  0  0  0  0  0  0  0
   -5.5954   -2.4184  -19.1332 O   0  0  0  0  0  0  0  0  0  0  0  0
 33 34  2  0  0  0
 34 32  1  0  0  0
 32  1  1  0  0  0
  1  2  1  0  0  0
  2  3  2  0  0  0
  4  2  1  0  0  0
  4  5  1  0  0  0
  5  6  1  0  0  0
  6 16  1  0  0  0
 16 17  1  0  0  0
 17 18  2  0  0  0
 17 19  1  0  0  0
 19 20  1  0  0  0
  6  7  1  0  0  0
  7  8  2  0  0  0
  7  9  1  0  0  0
  9 10  2  0  0  0
 10 11  1  0  0  0
 11 12  2  0  0  0
 12 13  1  0  0  0
 12 14  1  0  0  0
 14 15  2  0  0  0
  1 22  1  0  0  0
 22 23  2  0  0  0
 23 24  1  0  0  0
 24 25  2  0  0  0
 25 26  1  0  0  0
 26 27  2  0  0  0
 27 28  1  0  0  0
 28 29  2  0  0  0
 29 30  1  0  0  0
 30 31  2  0  0  0
 34 35  1  0  0  0
 35 36  2  0  0  0
 35 37  1  0  0  0
 15  4  1  0  0  0
 31 22  1  0  0  0
 15  9  1  0  0  0
 31 26  1  0  0  0
 19 21  1  0  0  0
M  CHG 1  37  -1
M  END
> <minimizedAffinity>
-7.79209

> <CNNscore>
0.2681505978

> <CNNaffinity>
6.2033185959

> <CNN_VS>
1.6634235382

> <CNNaffinity_variance>
0.2155094147

$$$$



 37 40  0  0  0  0  0  0  0  0999 V2000
   -5.2673   -0.1250  -22.0173 N   0  0  0  0  0  0  0  0  0  0  0  0
   -6.1510    0.4167  -23.1015 C   0  0  0  0  0  0  0  0  0  0  0  0
   -5.9279    1.8035  -23.6281 O   0  0  0  0  0  0  0  0  0  0  0  0
   -7.2577   -0.4282  -23.6593 C   0  0  0  0  0  0  0  0  0  0  0  0
   -8.6495   -0.2954  -23.1159 C   0  0  0  0  0  0  0  0  0  0  0  0
   -9.7563   -1.1404  -23.6737 N   0  0  0  0  0  0  0  0  0  0  0  0
   -9.4713   -2.1182  -24.7748 C   0  0  0  0  0  0  0  0  0  0  0  0
  -10.5780   -2.9632  -25.3326 O   0  0  0  0  0  0  0  0  0  0  0  0
   -8.0795   -2.2511  -25.3183 C   0  0  0  0  0  0  0  0  0  0  0  0
   -7.7945   -3.2289  -26.4194 C   0  0  0  0  0  0  0  0  0  0  0  0
   -6.4027   -3.3617  -26.9628 C   0  0  0  0  0  0  0  0  0  0  0  0
   -5.2960   -2.5168  -26.4051 C   0  0  0  0  0  0  0  0  0  0  0  0
   -3.9041   -2.6497  -26.9485 Cl  0  0  0  0  0  0  0  0  0  0  0  0
   -5.5809   -1.5389  -25.3039 C   0  0  0  0  0  0  0  0  0  0  0  0
   -6.9727   -1.4061  -24.7605 C   0  0  0  0  0  0  0  0  0  0  0  0
  -11.1481   -1.0075  -23.1302 C   0  0  0  0  0  0  0  0  0  0  0  0
  -12.0600    0.0608  -23.6566 C   0  0  0  0  0  0  0  0  0  0  0  0
  -13.1293   -0.2880  -24.6490 O   0  0  0  0  0  0  0  0  0  0  0  0
  -11.9025    1.4778  -23.1907 N   0  0  0  0  0  0  0  0  0  0  0  0
  -12.8144    2.5462  -23.7172 C   0  0  0  0  0  0  0  0  0  0  0  0
  -11.2006    1.7067  -22.5394 H   0  0  0  0  0  0  0  0  0  0  0  0
   -4.1605    0.7200  -21.4595 C   0  0  0  0  0  0  0  0  0  0  0  0
   -4.2945    1.3252  -20.0935 C   0  0  0  0  0  0  0  0  0  0  0  0
   -3.1878    2.1701  -19.5358 N   0  0  0  0  0  0  0  0  0  0  0  0
   -1.9470    2.4099  -20.3440 C   0  0  0  0  0  0  0  0  0  0  0  0
   -1.8131    1.8047  -21.7099 C   0  0  0  0  0  0  0  0  0  0  0  0
   -0.5724    2.0445  -22.5182 C   0  0  0  0  0  0  0  0  0  0  0  0
   -0.4384    1.4393  -23.8841 C   0  0  0  0  0  0  0  0  0  0  0  0
   -1.5452    0.5943  -24.4418 C   0  0  0  0  0  0  0  0  0  0  0  0
   -2.7859    0.3546  -23.6337 C   0  0  0  0  0  0  0  0  0  0  0  0
   -2.9199    0.9598  -22.2677 C   0  0  0  0  0  0  0  0  0  0  0  0
   -5.4904   -1.5118  -21.4908 C   0  0  0  0  0  0  0  0  0  0  0  0
   -7.7548   -1.3764  -20.2243 C   0  0  0  0  0  0  0  0  0  0  0  0
   -6.2946   -1.7195  -20.2418 C   0  0  0  0  0  0  0  0  0  0  0  0
   -5.6388   -2.2702  -19.0104 C   0  0  0  0  0  0  0  0  0  0  0  0
   -5.1160   -3.6761  -19.0040 O   0  0  0  0  0  0  0  0  0  0  0  0
   -5.5056   -1.4149  -17.7852 O   0  0  0  0  0  0  0  0  0  0  0  0
 33 34  2  0  0  0
 34 32  1  0  0  0
 32  1  1  0  0  0
  1  2  1  0  0  0
  2  3  2  0  0  0
  4  2  1  0  0  0
  4  5  1  0  0  0
  5  6  1  0  0  0
  6 16  1  0  0  0
 16 17  1  0  0  0
 17 18  2  0  0  0
 17 19  1  0  0  0
 19 20  1  0  0  0
  6  7  1  0  0  0
  7  8  2  0  0  0
  7  9  1  0  0  0
  9 10  2  0  0  0
 10 11  1  0  0  0
 11 12  2  0  0  0
 12 13  1  0  0  0
 12 14  1  0  0  0
 14 15  2  0  0  0
  1 22  1  0  0  0
 22 23  2  0  0  0
 23 24  1  0  0  0
 24 25  2  0  0  0
 25 26  1  0  0  0
 26 27  2  0  0  0
 27 28  1  0  0  0
 28 29  2  0  0  0
 29 30  1  0  0  0
 30 31  2  0  0  0
 34 35  1  0  0  0
 35 36  2  0  0  0
 35 37  1  0  0  0
 15  4  1  0  0  0
 31 22  1  0  0  0
 15  9  1  0  0  0
 31 26  1  0  0  0
 19 21  1  0  0  0
M  CHG 1  37  -1
M  END
> <minimizedAffinity>
-7.45319

> <CNNscore>
0.2483816743

> <CNNaffinity>
6.1209878922

> <CNN_VS>
1.5203412771

> <CNNaffinity_variance>
0.0898238569

$$$$



 37 40  0  0  0  0  0  0  0  0999 V2000
   -8.4903   -2.7426  -23.8278 N   0  0  0  0  0  0  0  0  0  0  0  0
   -8.5660   -1.7181  -24.9208 C   0  0  0  0  0  0  0  0  0  0  0  0
   -8.6238   -2.1543  -26.3549 O   0  0  0  0  0  0  0  0  0  0  0  0
   -8.5838   -0.2575  -24.5798 C   0  0  0  0  0  0  0  0  0  0  0  0
   -7.3271    0.5539  -24.6903 C   0  0  0  0  0  0  0  0  0  0  0  0
   -7.3449    2.0145  -24.3493 N   0  0  0  0  0  0  0  0  0  0  0  0
   -8.6195    2.6637  -23.8979 C   0  0  0  0  0  0  0  0  0  0  0  0
   -8.6373    4.1244  -23.5569 O   0  0  0  0  0  0  0  0  0  0  0  0
   -9.8763    1.8524  -23.7874 C   0  0  0  0  0  0  0  0  0  0  0  0
  -11.1509    2.5016  -23.3359 C   0  0  0  0  0  0  0  0  0  0  0  0
  -12.4076    1.6903  -23.2255 C   0  0  0  0  0  0  0  0  0  0  0  0
  -12.3898    0.2297  -23.5665 C   0  0  0  0  0  0  0  0  0  0  0  0
  -13.6467   -0.5817  -23.4560 Cl  0  0  0  0  0  0  0  0  0  0  0  0
  -11.1152   -0.4196  -24.0179 C   0  0  0  0  0  0  0  0  0  0  0  0
   -9.8585    0.3918  -24.1284 C   0  0  0  0  0  0  0  0  0  0  0  0
   -6.0881    2.8258  -24.4598 C   0  0  0  0  0  0  0  0  0  0  0  0
   -5.2462    3.0740  -23.2434 C   0  0  0  0  0  0  0  0  0  0  0  0
   -4.6486    4.4296  -23.0087 O   0  0  0  0  0  0  0  0  0  0  0  0
   -5.0020    1.9665  -22.2617 N   0  0  0  0  0  0  0  0  0  0  0  0
   -4.1601    2.2146  -21.0452 C   0  0  0  0  0  0  0  0  0  0  0  0
   -5.3942    1.0767  -22.4157 H   0  0  0  0  0  0  0  0  0  0  0  0
   -8.4724   -4.2032  -24.1688 C   0  0  0  0  0  0  0  0  0  0  0  0
   -9.4028   -4.7404  -25.2157 C   0  0  0  0  0  0  0  0  0  0  0  0
   -9.3850   -6.2010  -25.5567 N   0  0  0  0  0  0  0  0  0  0  0  0
   -8.4368   -7.1244  -24.8508 C   0  0  0  0  0  0  0  0  0  0  0  0
   -7.5064   -6.5872  -23.8040 C   0  0  0  0  0  0  0  0  0  0  0  0
   -6.5582   -7.5107  -23.0981 C   0  0  0  0  0  0  0  0  0  0  0  0
   -5.6278   -6.9735  -22.0513 C   0  0  0  0  0  0  0  0  0  0  0  0
   -5.6457   -5.5128  -21.7104 C   0  0  0  0  0  0  0  0  0  0  0  0
   -6.5938   -4.5894  -22.4162 C   0  0  0  0  0  0  0  0  0  0  0  0
   -7.5243   -5.1266  -23.4630 C   0  0  0  0  0  0  0  0  0  0  0  0
   -8.4324   -2.3064  -22.3937 C   0  0  0  0  0  0  0  0  0  0  0  0
   -5.9014   -1.7279  -22.4897 C   0  0  0  0  0  0  0  0  0  0  0  0
   -7.2626   -1.5083  -21.8992 C   0  0  0  0  0  0  0  0  0  0  0  0
   -7.4541   -0.4906  -20.8140 C   0  0  0  0  0  0  0  0  0  0  0  0
   -7.6929    0.9473  -21.1680 O   0  0  0  0  0  0  0  0  0  0  0  0
   -7.4069   -0.9109  -19.3748 O   0  0  0  0  0  0  0  0  0  0  0  0
 33 34  2  0  0  0
 34 32  1  0  0  0
 32  1  1  0  0  0
  1  2  1  0  0  0
  2  3  2  0  0  0
  4  2  1  0  0  0
  4  5  1  0  0  0
  5  6  1  0  0  0
  6 16  1  0  0  0
 16 17  1  0  0  0
 17 18  2  0  0  0
 17 19  1  0  0  0
 19 20  1  0  0  0
  6  7  1  0  0  0
  7  8  2  0  0  0
  7  9  1  0  0  0
  9 10  2  0  0  0
 10 11  1  0  0  0
 11 12  2  0  0  0
 12 13  1  0  0  0
 12 14  1  0  0  0
 14 15  2  0  0  0
  1 22  1  0  0  0
 22 23  2  0  0  0
 23 24  1  0  0  0
 24 25  2  0  0  0
 25 26  1  0  0  0
 26 27  2  0  0  0
 27 28  1  0  0  0
 28 29  2  0  0  0
 29 30  1  0  0  0
 30 31  2  0  0  0
 34 35  1  0  0  0
 35 36  2  0  0  0
 35 37  1  0  0  0
 15  4  1  0  0  0
 31 22  1  0  0  0
 15  9  1  0  0  0
 31 26  1  0  0  0
 19 21  1  0  0  0
M  CHG 1  37  -1
M  END
> <minimizedAffinity>
-7.32094

> <CNNscore>
0.2354794741

> <CNNaffinity>
5.9920167923

> <CNN_VS>
1.4109969139

> <CNNaffinity_variance>
0.5427020788

$$$$



 37 40  0  0  0  0  0  0  0  0999 V2000
   -5.3299   -0.9732  -23.1528 N   0  0  0  0  0  0  0  0  0  0  0  0
   -6.4381   -0.6218  -24.1006 C   0  0  0  0  0  0  0  0  0  0  0  0
   -6.2453    0.4739  -25.1068 O   0  0  0  0  0  0  0  0  0  0  0  0
   -7.7391   -1.3661  -24.0423 C   0  0  0  0  0  0  0  0  0  0  0  0
   -8.9330   -0.7392  -23.3854 C   0  0  0  0  0  0  0  0  0  0  0  0
  -10.2340   -1.4835  -23.3271 N   0  0  0  0  0  0  0  0  0  0  0  0
  -10.3411   -2.8547  -23.9257 C   0  0  0  0  0  0  0  0  0  0  0  0
  -11.6421   -3.5990  -23.8674 O   0  0  0  0  0  0  0  0  0  0  0  0
   -9.1472   -3.4816  -24.5827 C   0  0  0  0  0  0  0  0  0  0  0  0
   -9.2543   -4.8527  -25.1814 C   0  0  0  0  0  0  0  0  0  0  0  0
   -8.0604   -5.4796  -25.8384 C   0  0  0  0  0  0  0  0  0  0  0  0
   -6.7594   -4.7353  -25.8966 C   0  0  0  0  0  0  0  0  0  0  0  0
   -5.5655   -5.3622  -26.5537 Cl  0  0  0  0  0  0  0  0  0  0  0  0
   -6.6523   -3.3642  -25.2980 C   0  0  0  0  0  0  0  0  0  0  0  0
   -7.8462   -2.7373  -24.6410 C   0  0  0  0  0  0  0  0  0  0  0  0
  -11.4279   -0.8566  -22.6701 C   0  0  0  0  0  0  0  0  0  0  0  0
  -12.2730    0.1234  -23.4286 C   0  0  0  0  0  0  0  0  0  0  0  0
  -13.1179   -0.3452  -24.5760 O   0  0  0  0  0  0  0  0  0  0  0  0
  -12.2732    1.5721  -23.0396 N   0  0  0  0  0  0  0  0  0  0  0  0
  -13.1183    2.5522  -23.7981 C   0  0  0  0  0  0  0  0  0  0  0  0
  -11.7187    1.8796  -22.2865 H   0  0  0  0  0  0  0  0  0  0  0  0
   -4.0289   -0.2289  -23.2111 C   0  0  0  0  0  0  0  0  0  0  0  0
   -3.2056   -0.2546  -24.4648 C   0  0  0  0  0  0  0  0  0  0  0  0
   -1.9046    0.4897  -24.5231 N   0  0  0  0  0  0  0  0  0  0  0  0
   -1.4269    1.2597  -23.3277 C   0  0  0  0  0  0  0  0  0  0  0  0
   -2.2501    1.2854  -22.0741 C   0  0  0  0  0  0  0  0  0  0  0  0
   -1.7724    2.0555  -20.8787 C   0  0  0  0  0  0  0  0  0  0  0  0
   -2.5956    2.0812  -19.6251 C   0  0  0  0  0  0  0  0  0  0  0  0
   -3.8966    1.3369  -19.5668 C   0  0  0  0  0  0  0  0  0  0  0  0
   -4.3744    0.5669  -20.7621 C   0  0  0  0  0  0  0  0  0  0  0  0
   -3.5511    0.5411  -22.0158 C   0  0  0  0  0  0  0  0  0  0  0  0
   -5.5227   -2.0689  -22.1467 C   0  0  0  0  0  0  0  0  0  0  0  0
   -7.2628   -0.7624  -20.7271 C   0  0  0  0  0  0  0  0  0  0  0  0
   -6.1517   -1.7659  -20.8191 C   0  0  0  0  0  0  0  0  0  0  0  0
   -5.6696   -2.4665  -19.5835 C   0  0  0  0  0  0  0  0  0  0  0  0
   -5.0677   -3.8367  -19.6847 O   0  0  0  0  0  0  0  0  0  0  0  0
   -5.7894   -1.7968  -18.2465 O   0  0  0  0  0  0  0  0  0  0  0  0
 33 34  2  0  0  0
 34 32  1  0  0  0
 32  1  1  0  0  0
  1  2  1  0  0  0
  2  3  2  0  0  0
  4  2  1  0  0  0
  4  5  1  0  0  0
  5  6  1  0  0  0
  6 16  1  0  0  0
 16 17  1  0  0  0
 17 18  2  0  0  0
 17 19  1  0  0  0
 19 20  1  0  0  0
  6  7  1  0  0  0
  7  8  2  0  0  0
  7  9  1  0  0  0
  9 10  2  0  0  0
 10 11  1  0  0  0
 11 12  2  0  0  0
 12 13  1  0  0  0
 12 14  1  0  0  0
 14 15  2  0  0  0
  1 22  1  0  0  0
 22 23  2  0  0  0
 23 24  1  0  0  0
 24 25  2  0  0  0
 25 26  1  0  0  0
 26 27  2  0  0  0
 27 28  1  0  0  0
 28 29  2  0  0  0
 29 30  1  0  0  0
 30 31  2  0  0  0
 34 35  1  0  0  0
 35 36  2  0  0  0
 35 37  1  0  0  0
 15  4  1  0  0  0
 31 22  1  0  0  0
 15  9  1  0  0  0
 31 26  1  0  0  0
 19 21  1  0  0  0
M  CHG 1  37  -1
M  END
> <minimizedAffinity>
-7.36212

> <CNNscore>
0.2263445705

> <CNNaffinity>
6.0872740746

> <CNN_VS>
1.3778214455

> <CNNaffinity_variance>
0.0979790241

$$$$
