


 37 42  0  0  0  0  0  0  0  0999 V2000
   -7.2340   -0.0137  -21.0985 C   0  0  0  0  0  0  0  0  0  0  0  0
   -8.4161   -0.1508  -22.0118 C   0  0  0  0  0  0  0  0  0  0  0  0
   -9.2163    1.1156  -22.0890 C   0  0  0  0  0  0  0  0  0  0  0  0
  -10.3685    0.8797  -23.0200 N   0  0  0  0  0  0  0  0  0  0  0  0
  -10.2804   -0.5325  -23.5180 C   0  0  0  0  0  0  0  0  0  0  0  0
  -11.2320   -1.1919  -24.4718 O   0  0  0  0  0  0  0  0  0  0  0  0
   -9.0737   -1.1694  -22.8949 C   0  0  0  0  0  0  0  0  0  0  0  0
   -9.8381   -2.0777  -23.8118 C   0  0  0  0  0  0  0  0  0  0  0  0
   -9.3711   -3.4859  -24.0330 N   0  0  0  0  0  0  0  0  0  0  0  0
   -8.1397   -3.9857  -23.3374 C   0  0  0  0  0  0  0  0  0  0  0  0
   -7.6727   -5.3939  -23.5586 O   0  0  0  0  0  0  0  0  0  0  0  0
   -7.3753   -3.0773  -22.4205 C   0  0  0  0  0  0  0  0  0  0  0  0
   -6.1439   -3.5771  -21.7249 C   0  0  0  0  0  0  0  0  0  0  0  0
   -5.3796   -2.6688  -20.8081 C   0  0  0  0  0  0  0  0  0  0  0  0
   -5.8466   -1.2606  -20.5869 C   0  0  0  0  0  0  0  0  0  0  0  0
   -5.0822   -0.3522  -19.6700 Cl  0  0  0  0  0  0  0  0  0  0  0  0
   -7.0780   -0.7608  -21.2825 C   0  0  0  0  0  0  0  0  0  0  0  0
   -7.8423   -1.6692  -22.1993 C   0  0  0  0  0  0  0  0  0  0  0  0
  -11.4237    1.8803  -23.3882 C   0  0  0  0  0  0  0  0  0  0  0  0
  -12.7986    1.7715  -22.7988 C   0  0  0  0  0  0  0  0  0  0  0  0
  -13.8538    2.7721  -23.1671 N   0  0  0  0  0  0  0  0  0  0  0  0
  -13.5338    3.8814  -24.1247 C   0  0  0  0  0  0  0  0  0  0  0  0
  -12.1587    3.9901  -24.7141 C   0  0  0  0  0  0  0  0  0  0  0  0
  -11.8388    5.0995  -25.6718 C   0  0  0  0  0  0  0  0  0  0  0  0
  -10.4637    5.2081  -26.2611 C   0  0  0  0  0  0  0  0  0  0  0  0
   -9.4086    4.2075  -25.8929 C   0  0  0  0  0  0  0  0  0  0  0  0
   -9.7286    3.0983  -24.9352 C   0  0  0  0  0  0  0  0  0  0  0  0
  -11.1036    2.9895  -24.3459 C   0  0  0  0  0  0  0  0  0  0  0  0
  -10.1355   -4.3943  -24.9499 C   0  0  0  0  0  0  0  0  0  0  0  0
   -9.9811   -4.2626  -26.4361 C   0  0  0  0  0  0  0  0  0  0  0  0
   -8.8877   -5.0052  -27.1452 N   0  0  0  0  0  0  0  0  0  0  0  0
   -7.4589   -4.5830  -26.9707 C   0  0  0  0  0  0  0  0  0  0  0  0
   -6.3655   -5.3256  -27.6798 C   0  0  0  0  0  0  0  0  0  0  0  0
   -6.7008   -6.4904  -28.5635 O   0  0  0  0  0  0  0  0  0  0  0  0
   -8.1295   -6.9126  -28.7380 C   0  0  0  0  0  0  0  0  0  0  0  0
   -9.2230   -6.1700  -28.0289 C   0  0  0  0  0  0  0  0  0  0  0  0
   -8.1442   -5.5102  -27.6274 H   0  0  0  0  0  0  0  0  0  0  0  0
  2  1  1  0  0  0
  2  3  1  0  0  0
  3  4  1  0  0  0
  4 19  1  0  0  0
 19 20  2  0  0  0
 20 21  1  0  0  0
 21 22  2  0  0  0
 22 23  1  0  0  0
 23 24  2  0  0  0
 24 25  1  0  0  0
 25 26  2  0  0  0
 26 27  1  0  0  0
 27 28  2  0  0  0
  4  5  1  0  0  0
  5  6  2  0  0  0
  5  7  1  0  0  0
  7  8  1  0  0  0
  8  9  1  0  0  0
  9 29  1  0  0  0
 29 30  1  0  0  0
 30 31  1  0  0  0
 31 32  1  0  0  0
 32 33  1  0  0  0
 33 34  1  0  0  0
 34 35  1  0  0  0
 35 36  1  0  0  0
  9 10  1  0  0  0
 10 11  2  0  0  0
 10 12  1  0  0  0
 12 13  2  0  0  0
 13 14  1  0  0  0
 14 15  2  0  0  0
 15 16  1  0  0  0
 15 17  1  0  0  0
 17 18  2  0  0  0
  7  2  1  0  0  0
 36 31  1  0  0  0
 18 12  1  0  0  0
 28 19  1  0  0  0
 18  7  1  0  0  0
 28 23  1  0  0  0
 31 37  1  0  0  0
M  CHG 1  31   1
M  END
> <minimizedAffinity>
-8.72533

> <CNNscore>
0.2701395750

> <CNNaffinity>
6.0634055138

> <CNN_VS>
1.6379657984

> <CNNaffinity_variance>
0.3028008342

$$$$



 37 42  0  0  0  0  0  0  0  0999 V2000
  -10.6066    2.5416  -23.6625 C   0  0  0  0  0  0  0  0  0  0  0  0
   -9.3617    1.7128  -23.5469 C   0  0  0  0  0  0  0  0  0  0  0  0
   -8.1203    2.5531  -23.6004 C   0  0  0  0  0  0  0  0  0  0  0  0
   -6.9367    1.6398  -23.4778 N   0  0  0  0  0  0  0  0  0  0  0  0
   -7.4467    0.2351  -23.3486 C   0  0  0  0  0  0  0  0  0  0  0  0
   -6.6055   -0.9983  -23.2023 O   0  0  0  0  0  0  0  0  0  0  0  0
   -8.9454    0.2802  -23.3913 C   0  0  0  0  0  0  0  0  0  0  0  0
   -8.3807   -1.1009  -23.2371 C   0  0  0  0  0  0  0  0  0  0  0  0
   -9.3015   -2.2812  -23.1410 N   0  0  0  0  0  0  0  0  0  0  0  0
  -10.7868   -2.0804  -23.1991 C   0  0  0  0  0  0  0  0  0  0  0  0
  -11.7075   -3.2607  -23.1030 O   0  0  0  0  0  0  0  0  0  0  0  0
  -11.3515   -0.6993  -23.3533 C   0  0  0  0  0  0  0  0  0  0  0  0
  -12.8368   -0.4985  -23.4114 C   0  0  0  0  0  0  0  0  0  0  0  0
  -13.4014    0.8826  -23.5656 C   0  0  0  0  0  0  0  0  0  0  0  0
  -12.4807    2.0628  -23.6617 C   0  0  0  0  0  0  0  0  0  0  0  0
  -13.0454    3.4440  -23.8159 Cl  0  0  0  0  0  0  0  0  0  0  0  0
  -10.9954    1.8621  -23.6036 C   0  0  0  0  0  0  0  0  0  0  0  0
  -10.4308    0.4810  -23.4494 C   0  0  0  0  0  0  0  0  0  0  0  0
   -5.4962    2.0578  -23.4835 C   0  0  0  0  0  0  0  0  0  0  0  0
   -4.8874    2.6341  -24.7273 C   0  0  0  0  0  0  0  0  0  0  0  0
   -3.4468    3.0521  -24.7329 N   0  0  0  0  0  0  0  0  0  0  0  0
   -2.6151    2.8938  -23.4947 C   0  0  0  0  0  0  0  0  0  0  0  0
   -3.2239    2.3174  -22.2509 C   0  0  0  0  0  0  0  0  0  0  0  0
   -2.3921    2.1591  -21.0126 C   0  0  0  0  0  0  0  0  0  0  0  0
   -3.0011    1.5828  -19.7688 C   0  0  0  0  0  0  0  0  0  0  0  0
   -4.4416    1.1648  -19.7632 C   0  0  0  0  0  0  0  0  0  0  0  0
   -5.2733    1.3231  -21.0014 C   0  0  0  0  0  0  0  0  0  0  0  0
   -4.6645    1.8994  -22.2452 C   0  0  0  0  0  0  0  0  0  0  0  0
   -8.7368   -3.6623  -22.9868 C   0  0  0  0  0  0  0  0  0  0  0  0
   -7.8681   -4.2419  -24.0635 C   0  0  0  0  0  0  0  0  0  0  0  0
   -8.4925   -4.9165  -25.2488 N   0  0  0  0  0  0  0  0  0  0  0  0
   -8.9253   -4.1034  -26.4327 C   0  0  0  0  0  0  0  0  0  0  0  0
   -9.5496   -4.7780  -27.6181 C   0  0  0  0  0  0  0  0  0  0  0  0
   -9.7413   -6.2657  -27.6195 O   0  0  0  0  0  0  0  0  0  0  0  0
   -9.3085   -7.0788  -26.4357 C   0  0  0  0  0  0  0  0  0  0  0  0
   -8.6841   -6.4042  -25.2503 C   0  0  0  0  0  0  0  0  0  0  0  0
   -8.9171   -5.3752  -26.0548 H   0  0  0  0  0  0  0  0  0  0  0  0
  2  1  1  0  0  0
  2  3  1  0  0  0
  3  4  1  0  0  0
  4 19  1  0  0  0
 19 20  2  0  0  0
 20 21  1  0  0  0
 21 22  2  0  0  0
 22 23  1  0  0  0
 23 24  2  0  0  0
 24 25  1  0  0  0
 25 26  2  0  0  0
 26 27  1  0  0  0
 27 28  2  0  0  0
  4  5  1  0  0  0
  5  6  2  0  0  0
  5  7  1  0  0  0
  7  8  1  0  0  0
  8  9  1  0  0  0
  9 29  1  0  0  0
 29 30  1  0  0  0
 30 31  1  0  0  0
 31 32  1  0  0  0
 32 33  1  0  0  0
 33 34  1  0  0  0
 34 35  1  0  0  0
 35 36  1  0  0  0
  9 10  1  0  0  0
 10 11  2  0  0  0
 10 12  1  0  0  0
 12 13  2  0  0  0
 13 14  1  0  0  0
 14 15  2  0  0  0
 15 16  1  0  0  0
 15 17  1  0  0  0
 17 18  2  0  0  0
  7  2  1  0  0  0
 36 31  1  0  0  0
 18 12  1  0  0  0
 28 19  1  0  0  0
 18  7  1  0  0  0
 28 23  1  0  0  0
 31 37  1  0  0  0
M  CHG 1  31   1
M  END
> <minimizedAffinity>
-8.24745

> <CNNscore>
0.2270907909

> <CNNaffinity>
6.1355957985

> <CNN_VS>
1.3933372498

> <CNNaffinity_variance>
0.2797797024

$$$$



 37 42  0  0  0  0  0  0  0  0999 V2000
   -7.4431   -5.0760  -23.2169 C   0  0  0  0  0  0  0  0  0  0  0  0
   -7.1617   -3.6084  -23.0860 C   0  0  0  0  0  0  0  0  0  0  0  0
   -6.7137   -3.2435  -21.7017 C   0  0  0  0  0  0  0  0  0  0  0  0
   -6.4588   -1.7656  -21.6715 N   0  0  0  0  0  0  0  0  0  0  0  0
   -6.7493   -1.2172  -23.0371 C   0  0  0  0  0  0  0  0  0  0  0  0
   -6.6268    0.2182  -23.4551 O   0  0  0  0  0  0  0  0  0  0  0  0
   -7.1837   -2.3561  -23.9113 C   0  0  0  0  0  0  0  0  0  0  0  0
   -7.1571   -1.0280  -24.6080 C   0  0  0  0  0  0  0  0  0  0  0  0
   -7.5453   -0.9315  -26.0537 N   0  0  0  0  0  0  0  0  0  0  0  0
   -7.9602   -2.1631  -26.8027 C   0  0  0  0  0  0  0  0  0  0  0  0
   -8.3484   -2.0666  -28.2483 O   0  0  0  0  0  0  0  0  0  0  0  0
   -7.9868   -3.4913  -26.1060 C   0  0  0  0  0  0  0  0  0  0  0  0
   -8.4017   -4.7229  -26.8550 C   0  0  0  0  0  0  0  0  0  0  0  0
   -8.4283   -6.0509  -26.1583 C   0  0  0  0  0  0  0  0  0  0  0  0
   -8.0401   -6.1474  -24.7126 C   0  0  0  0  0  0  0  0  0  0  0  0
   -8.0667   -7.4756  -24.0159 Cl  0  0  0  0  0  0  0  0  0  0  0  0
   -7.6252   -4.9159  -23.9636 C   0  0  0  0  0  0  0  0  0  0  0  0
   -7.5986   -3.5878  -24.6603 C   0  0  0  0  0  0  0  0  0  0  0  0
   -5.9949   -0.9750  -20.4843 C   0  0  0  0  0  0  0  0  0  0  0  0
   -6.7398   -1.0653  -19.1855 C   0  0  0  0  0  0  0  0  0  0  0  0
   -6.2759   -0.2747  -17.9983 N   0  0  0  0  0  0  0  0  0  0  0  0
   -5.0670    0.6062  -18.1098 C   0  0  0  0  0  0  0  0  0  0  0  0
   -4.3220    0.6965  -19.4086 C   0  0  0  0  0  0  0  0  0  0  0  0
   -3.1130    1.5775  -19.5200 C   0  0  0  0  0  0  0  0  0  0  0  0
   -2.3681    1.6677  -20.8189 C   0  0  0  0  0  0  0  0  0  0  0  0
   -2.8320    0.8771  -22.0061 C   0  0  0  0  0  0  0  0  0  0  0  0
   -4.0409   -0.0038  -21.8946 C   0  0  0  0  0  0  0  0  0  0  0  0
   -4.7859   -0.0941  -20.5958 C   0  0  0  0  0  0  0  0  0  0  0  0
   -7.5187    0.3967  -26.7504 C   0  0  0  0  0  0  0  0  0  0  0  0
   -6.2137    0.9773  -27.2084 C   0  0  0  0  0  0  0  0  0  0  0  0
   -4.9372    0.2219  -26.9851 N   0  0  0  0  0  0  0  0  0  0  0  0
   -4.5536   -0.8932  -27.9123 C   0  0  0  0  0  0  0  0  0  0  0  0
   -3.2771   -1.6487  -27.6891 C   0  0  0  0  0  0  0  0  0  0  0  0
   -2.3842   -1.2891  -26.5387 O   0  0  0  0  0  0  0  0  0  0  0  0
   -2.7677   -0.1741  -25.6115 C   0  0  0  0  0  0  0  0  0  0  0  0
   -4.0443    0.5814  -25.8347 C   0  0  0  0  0  0  0  0  0  0  0  0
   -4.0692   -0.2919  -26.8333 H   0  0  0  0  0  0  0  0  0  0  0  0
  2  1  1  0  0  0
  2  3  1  0  0  0
  3  4  1  0  0  0
  4 19  1  0  0  0
 19 20  2  0  0  0
 20 21  1  0  0  0
 21 22  2  0  0  0
 22 23  1  0  0  0
 23 24  2  0  0  0
 24 25  1  0  0  0
 25 26  2  0  0  0
 26 27  1  0  0  0
 27 28  2  0  0  0
  4  5  1  0  0  0
  5  6  2  0  0  0
  5  7  1  0  0  0
  7  8  1  0  0  0
  8  9  1  0  0  0
  9 29  1  0  0  0
 29 30  1  0  0  0
 30 31  1  0  0  0
 31 32  1  0  0  0
 32 33  1  0  0  0
 33 34  1  0  0  0
 34 35  1  0  0  0
 35 36  1  0  0  0
  9 10  1  0  0  0
 10 11  2  0  0  0
 10 12  1  0  0  0
 12 13  2  0  0  0
 13 14  1  0  0  0
 14 15  2  0  0  0
 15 16  1  0  0  0
 15 17  1  0  0  0
 17 18  2  0  0  0
  7  2  1  0  0  0
 36 31  1  0  0  0
 18 12  1  0  0  0
 28 19  1  0  0  0
 18  7  1  0  0  0
 28 23  1  0  0  0
 31 37  1  0  0  0
M  CHG 1  31   1
M  END
> <minimizedAffinity>
-7.37880

> <CNNscore>
0.2019162327

> <CNNaffinity>
5.8878769875

> <CNN_VS>
1.1888579130

> <CNNaffinity_variance>
0.1486923099

$$$$



 37 42  0  0  0  0  0  0  0  0999 V2000
  -10.6158   -2.0646  -24.3190 C   0  0  0  0  0  0  0  0  0  0  0  0
  -10.2599   -0.6503  -23.9679 C   0  0  0  0  0  0  0  0  0  0  0  0
  -11.4718    0.2295  -23.8829 C   0  0  0  0  0  0  0  0  0  0  0  0
  -11.0156    1.6140  -23.5291 N   0  0  0  0  0  0  0  0  0  0  0  0
   -9.5218    1.5898  -23.3955 C   0  0  0  0  0  0  0  0  0  0  0  0
   -8.6483    2.7597  -23.0512 O   0  0  0  0  0  0  0  0  0  0  0  0
   -9.0547    0.1904  -23.6667 C   0  0  0  0  0  0  0  0  0  0  0  0
   -7.9484    1.1517  -23.3476 C   0  0  0  0  0  0  0  0  0  0  0  0
   -6.5259    0.6765  -23.3220 N   0  0  0  0  0  0  0  0  0  0  0  0
   -6.2097   -0.7601  -23.6156 C   0  0  0  0  0  0  0  0  0  0  0  0
   -4.7872   -1.2354  -23.5900 O   0  0  0  0  0  0  0  0  0  0  0  0
   -7.3161   -1.7215  -23.9347 C   0  0  0  0  0  0  0  0  0  0  0  0
   -6.9999   -3.1581  -24.2282 C   0  0  0  0  0  0  0  0  0  0  0  0
   -8.1062   -4.1194  -24.5474 C   0  0  0  0  0  0  0  0  0  0  0  0
   -9.5287   -3.6442  -24.5729 C   0  0  0  0  0  0  0  0  0  0  0  0
  -10.6350   -4.6056  -24.8921 Cl  0  0  0  0  0  0  0  0  0  0  0  0
   -9.8449   -2.2076  -24.2794 C   0  0  0  0  0  0  0  0  0  0  0  0
   -8.7385   -1.2463  -23.9603 C   0  0  0  0  0  0  0  0  0  0  0  0
  -11.8982    2.8123  -23.3419 C   0  0  0  0  0  0  0  0  0  0  0  0
  -12.8457    2.8717  -22.1806 C   0  0  0  0  0  0  0  0  0  0  0  0
  -13.7283    4.0700  -21.9934 N   0  0  0  0  0  0  0  0  0  0  0  0
  -13.6634    5.2088  -22.9675 C   0  0  0  0  0  0  0  0  0  0  0  0
  -12.7159    5.1494  -24.1288 C   0  0  0  0  0  0  0  0  0  0  0  0
  -12.6510    6.2883  -25.1029 C   0  0  0  0  0  0  0  0  0  0  0  0
  -11.7035    6.2287  -26.2642 C   0  0  0  0  0  0  0  0  0  0  0  0
  -10.8209    5.0304  -26.4514 C   0  0  0  0  0  0  0  0  0  0  0  0
  -10.8858    3.8916  -25.4773 C   0  0  0  0  0  0  0  0  0  0  0  0
  -11.8333    3.9511  -24.3161 C   0  0  0  0  0  0  0  0  0  0  0  0
   -5.4195    1.6379  -23.0029 C   0  0  0  0  0  0  0  0  0  0  0  0
   -4.5925    1.4458  -21.7663 C   0  0  0  0  0  0  0  0  0  0  0  0
   -5.1740    0.7404  -20.5772 N   0  0  0  0  0  0  0  0  0  0  0  0
   -4.4377    0.7417  -19.2703 C   0  0  0  0  0  0  0  0  0  0  0  0
   -5.0193    0.0363  -18.0811 C   0  0  0  0  0  0  0  0  0  0  0  0
   -6.3371   -0.6704  -18.1988 O   0  0  0  0  0  0  0  0  0  0  0  0
   -7.0734   -0.6717  -19.5056 C   0  0  0  0  0  0  0  0  0  0  0  0
   -6.4919    0.0337  -20.6948 C   0  0  0  0  0  0  0  0  0  0  0  0
   -5.5695    0.2608  -19.7685 H   0  0  0  0  0  0  0  0  0  0  0  0
  2  1  1  0  0  0
  2  3  1  0  0  0
  3  4  1  0  0  0
  4 19  1  0  0  0
 19 20  2  0  0  0
 20 21  1  0  0  0
 21 22  2  0  0  0
 22 23  1  0  0  0
 23 24  2  0  0  0
 24 25  1  0  0  0
 25 26  2  0  0  0
 26 27  1  0  0  0
 27 28  2  0  0  0
  4  5  1  0  0  0
  5  6  2  0  0  0
  5  7  1  0  0  0
  7  8  1  0  0  0
  8  9  1  0  0  0
  9 29  1  0  0  0
 29 30  1  0  0  0
 30 31  1  0  0  0
 31 32  1  0  0  0
 32 33  1  0  0  0
 33 34  1  0  0  0
 34 35  1  0  0  0
 35 36  1  0  0  0
  9 10  1  0  0  0
 10 11  2  0  0  0
 10 12  1  0  0  0
 12 13  2  0  0  0
 13 14  1  0  0  0
 14 15  2  0  0  0
 15 16  1  0  0  0
 15 17  1  0  0  0
 17 18  2  0  0  0
  7  2  1  0  0  0
 36 31  1  0  0  0
 18 12  1  0  0  0
 28 19  1  0  0  0
 18  7  1  0  0  0
 28 23  1  0  0  0
 31 37  1  0  0  0
M  CHG 1  31   1
M  END
> <minimizedAffinity>
-8.10571

> <CNNscore>
0.1887518913

> <CNNaffinity>
6.1390023232

> <CNN_VS>
1.1587482691

> <CNNaffinity_variance>
0.1488899887

$$$$



 37 42  0  0  0  0  0  0  0  0999 V2000
  -10.0735    1.6653  -22.7263 C   0  0  0  0  0  0  0  0  0  0  0  0
   -8.8807    0.7617  -22.6222 C   0  0  0  0  0  0  0  0  0  0  0  0
   -7.6620    1.4930  -22.1425 C   0  0  0  0  0  0  0  0  0  0  0  0
   -6.5302    0.5112  -22.0718 N   0  0  0  0  0  0  0  0  0  0  0  0
   -7.0494   -0.8269  -22.5077 C   0  0  0  0  0  0  0  0  0  0  0  0
   -6.2553   -2.0969  -22.5891 O   0  0  0  0  0  0  0  0  0  0  0  0
   -8.5021   -0.6721  -22.8478 C   0  0  0  0  0  0  0  0  0  0  0  0
   -7.9788   -2.0663  -23.0272 C   0  0  0  0  0  0  0  0  0  0  0  0
   -8.8924   -3.1542  -23.5085 N   0  0  0  0  0  0  0  0  0  0  0  0
  -10.3294   -2.8479  -23.8105 C   0  0  0  0  0  0  0  0  0  0  0  0
  -11.2431   -3.9359  -24.2918 O   0  0  0  0  0  0  0  0  0  0  0  0
  -10.8528   -1.4536  -23.6311 C   0  0  0  0  0  0  0  0  0  0  0  0
  -12.2898   -1.1473  -23.9330 C   0  0  0  0  0  0  0  0  0  0  0  0
  -12.8131    0.2469  -23.7536 C   0  0  0  0  0  0  0  0  0  0  0  0
  -11.8995    1.3348  -23.2723 C   0  0  0  0  0  0  0  0  0  0  0  0
  -12.4229    2.7291  -23.0930 Cl  0  0  0  0  0  0  0  0  0  0  0  0
  -10.4625    1.0285  -22.9704 C   0  0  0  0  0  0  0  0  0  0  0  0
   -9.9392   -0.3657  -23.1498 C   0  0  0  0  0  0  0  0  0  0  0  0
   -5.1258    0.8142  -21.6408 C   0  0  0  0  0  0  0  0  0  0  0  0
   -4.8299    1.1052  -20.1995 C   0  0  0  0  0  0  0  0  0  0  0  0
   -3.4254    1.4082  -19.7685 N   0  0  0  0  0  0  0  0  0  0  0  0
   -2.3169    1.4202  -20.7790 C   0  0  0  0  0  0  0  0  0  0  0  0
   -2.6129    1.1291  -22.2204 C   0  0  0  0  0  0  0  0  0  0  0  0
   -1.5043    1.1411  -23.2309 C   0  0  0  0  0  0  0  0  0  0  0  0
   -1.8003    0.8501  -24.6723 C   0  0  0  0  0  0  0  0  0  0  0  0
   -3.2047    0.5471  -25.1032 C   0  0  0  0  0  0  0  0  0  0  0  0
   -4.3132    0.5351  -24.0927 C   0  0  0  0  0  0  0  0  0  0  0  0
   -4.0173    0.8261  -22.6514 C   0  0  0  0  0  0  0  0  0  0  0  0
   -8.3691   -4.5485  -23.6879 C   0  0  0  0  0  0  0  0  0  0  0  0
   -7.3133   -4.8268  -24.7164 C   0  0  0  0  0  0  0  0  0  0  0  0
   -7.7051   -5.3057  -26.0828 N   0  0  0  0  0  0  0  0  0  0  0  0
   -9.1529   -5.3619  -26.4713 C   0  0  0  0  0  0  0  0  0  0  0  0
   -9.5448   -5.8408  -27.8377 C   0  0  0  0  0  0  0  0  0  0  0  0
   -8.4889   -6.2634  -28.8157 O   0  0  0  0  0  0  0  0  0  0  0  0
   -7.0412   -6.2072  -28.4273 C   0  0  0  0  0  0  0  0  0  0  0  0
   -6.6492   -5.7283  -27.0608 C   0  0  0  0  0  0  0  0  0  0  0  0
   -7.9716   -5.6313  -27.0120 H   0  0  0  0  0  0  0  0  0  0  0  0
  2  1  1  0  0  0
  2  3  1  0  0  0
  3  4  1  0  0  0
  4 19  1  0  0  0
 19 20  2  0  0  0
 20 21  1  0  0  0
 21 22  2  0  0  0
 22 23  1  0  0  0
 23 24  2  0  0  0
 24 25  1  0  0  0
 25 26  2  0  0  0
 26 27  1  0  0  0
 27 28  2  0  0  0
  4  5  1  0  0  0
  5  6  2  0  0  0
  5  7  1  0  0  0
  7  8  1  0  0  0
  8  9  1  0  0  0
  9 29  1  0  0  0
 29 30  1  0  0  0
 30 31  1  0  0  0
 31 32  1  0  0  0
 32 33  1  0  0  0
 33 34  1  0  0  0
 34 35  1  0  0  0
 35 36  1  0  0  0
  9 10  1  0  0  0
 10 11  2  0  0  0
 10 12  1  0  0  0
 12 13  2  0  0  0
 13 14  1  0  0  0
 14 15  2  0  0  0
 15 16  1  0  0  0
 15 17  1  0  0  0
 17 18  2  0  0  0
  7  2  1  0  0  0
 36 31  1  0  0  0
 18 12  1  0  0  0
 28 19  1  0  0  0
 18  7  1  0  0  0
 28 23  1  0  0  0
 31 37  1  0  0  0
M  CHG 1  31   1
M  END
> <minimizedAffinity>
-8.01230

> <CNNscore>
0.1748260707

> <CNNaffinity>
6.0279955864

> <CNN_VS>
1.0538507700

> <CNNaffinity_variance>
0.0962364748

$$$$



 37 42  0  0  0  0  0  0  0  0999 V2000
  -10.5051    2.4229  -23.4561 C   0  0  0  0  0  0  0  0  0  0  0  0
   -9.2555    1.6146  -23.2680 C   0  0  0  0  0  0  0  0  0  0  0  0
   -8.0354    2.4814  -23.1687 C   0  0  0  0  0  0  0  0  0  0  0  0
   -6.8454    1.5871  -22.9832 N   0  0  0  0  0  0  0  0  0  0  0  0
   -7.3302    0.1677  -22.9680 C   0  0  0  0  0  0  0  0  0  0  0  0
   -6.4755   -1.0542  -22.8052 O   0  0  0  0  0  0  0  0  0  0  0  0
   -8.8198    0.1847  -23.1440 C   0  0  0  0  0  0  0  0  0  0  0  0
   -8.2375   -1.1907  -23.0055 C   0  0  0  0  0  0  0  0  0  0  0  0
   -9.1338   -2.3926  -23.0497 N   0  0  0  0  0  0  0  0  0  0  0  0
  -10.6125   -2.2192  -23.2324 C   0  0  0  0  0  0  0  0  0  0  0  0
  -11.5088   -3.4211  -23.2766 O   0  0  0  0  0  0  0  0  0  0  0  0
  -11.1949   -0.8437  -23.3709 C   0  0  0  0  0  0  0  0  0  0  0  0
  -12.6735   -0.6703  -23.5536 C   0  0  0  0  0  0  0  0  0  0  0  0
  -13.2558    0.7051  -23.6921 C   0  0  0  0  0  0  0  0  0  0  0  0
  -12.3595    1.9070  -23.6479 C   0  0  0  0  0  0  0  0  0  0  0  0
  -12.9418    3.2824  -23.7864 Cl  0  0  0  0  0  0  0  0  0  0  0  0
  -10.8808    1.7335  -23.4652 C   0  0  0  0  0  0  0  0  0  0  0  0
  -10.2985    0.3582  -23.3267 C   0  0  0  0  0  0  0  0  0  0  0  0
   -5.4208    2.0338  -22.8385 C   0  0  0  0  0  0  0  0  0  0  0  0
   -4.8722    2.3630  -21.4818 C   0  0  0  0  0  0  0  0  0  0  0  0
   -3.4476    2.8097  -21.3371 N   0  0  0  0  0  0  0  0  0  0  0  0
   -2.5717    2.9272  -22.5490 C   0  0  0  0  0  0  0  0  0  0  0  0
   -3.1203    2.5980  -23.9057 C   0  0  0  0  0  0  0  0  0  0  0  0
   -2.2443    2.7155  -25.1177 C   0  0  0  0  0  0  0  0  0  0  0  0
   -2.7930    2.3863  -26.4744 C   0  0  0  0  0  0  0  0  0  0  0  0
   -4.2175    1.9397  -26.6191 C   0  0  0  0  0  0  0  0  0  0  0  0
   -5.0935    1.8221  -25.4071 C   0  0  0  0  0  0  0  0  0  0  0  0
   -4.5449    2.1513  -24.0505 C   0  0  0  0  0  0  0  0  0  0  0  0
   -8.5514   -3.7681  -22.9111 C   0  0  0  0  0  0  0  0  0  0  0  0
   -7.3827   -4.1764  -23.7580 C   0  0  0  0  0  0  0  0  0  0  0  0
   -7.5605   -5.2042  -24.8360 N   0  0  0  0  0  0  0  0  0  0  0  0
   -8.9389   -5.6351  -25.2415 C   0  0  0  0  0  0  0  0  0  0  0  0
   -9.1167   -6.6628  -26.3195 C   0  0  0  0  0  0  0  0  0  0  0  0
   -7.9161   -7.2597  -26.9920 O   0  0  0  0  0  0  0  0  0  0  0  0
   -6.5377   -6.8288  -26.5866 C   0  0  0  0  0  0  0  0  0  0  0  0
   -6.3599   -5.8010  -25.5086 C   0  0  0  0  0  0  0  0  0  0  0  0
   -7.6814   -5.9031  -25.5691 H   0  0  0  0  0  0  0  0  0  0  0  0
  2  1  1  0  0  0
  2  3  1  0  0  0
  3  4  1  0  0  0
  4 19  1  0  0  0
 19 20  2  0  0  0
 20 21  1  0  0  0
 21 22  2  0  0  0
 22 23  1  0  0  0
 23 24  2  0  0  0
 24 25  1  0  0  0
 25 26  2  0  0  0
 26 27  1  0  0  0
 27 28  2  0  0  0
  4  5  1  0  0  0
  5  6  2  0  0  0
  5  7  1  0  0  0
  7  8  1  0  0  0
  8  9  1  0  0  0
  9 29  1  0  0  0
 29 30  1  0  0  0
 30 31  1  0  0  0
 31 32  1  0  0  0
 32 33  1  0  0  0
 33 34  1  0  0  0
 34 35  1  0  0  0
 35 36  1  0  0  0
  9 10  1  0  0  0
 10 11  2  0  0  0
 10 12  1  0  0  0
 12 13  2  0  0  0
 13 14  1  0  0  0
 14 15  2  0  0  0
 15 16  1  0  0  0
 15 17  1  0  0  0
 17 18  2  0  0  0
  7  2  1  0  0  0
 36 31  1  0  0  0
 18 12  1  0  0  0
 28 19  1  0  0  0
 18  7  1  0  0  0
 28 23  1  0  0  0
 31 37  1  0  0  0
M  CHG 1  31   1
M  END
> <minimizedAffinity>
-7.27138

> <CNNscore>
0.1645775437

> <CNNaffinity>
6.0406117439

> <CNN_VS>
0.9941490293

> <CNNaffinity_variance>
0.2129600346

$$$$



 37 42  0  0  0  0  0  0  0  0999 V2000
   -5.7522   -5.4764  -23.2046 C   0  0  0  0  0  0  0  0  0  0  0  0
   -6.4289   -4.2384  -22.6950 C   0  0  0  0  0  0  0  0  0  0  0  0
   -5.6074   -3.5367  -21.6545 C   0  0  0  0  0  0  0  0  0  0  0  0
   -6.3633   -2.3197  -21.2101 N   0  0  0  0  0  0  0  0  0  0  0  0
   -7.6521   -2.2693  -21.9761 C   0  0  0  0  0  0  0  0  0  0  0  0
   -8.7138   -1.2176  -21.8470 O   0  0  0  0  0  0  0  0  0  0  0  0
   -7.6926   -3.4551  -22.8938 C   0  0  0  0  0  0  0  0  0  0  0  0
   -8.9020   -2.5723  -22.9839 C   0  0  0  0  0  0  0  0  0  0  0  0
  -10.0114   -2.9147  -23.9336 N   0  0  0  0  0  0  0  0  0  0  0  0
   -9.9115   -4.1398  -24.7933 C   0  0  0  0  0  0  0  0  0  0  0  0
  -11.0209   -4.4822  -25.7430 O   0  0  0  0  0  0  0  0  0  0  0  0
   -8.7020   -5.0226  -24.7032 C   0  0  0  0  0  0  0  0  0  0  0  0
   -8.6021   -6.2477  -25.5629 C   0  0  0  0  0  0  0  0  0  0  0  0
   -7.3927   -7.1305  -25.4728 C   0  0  0  0  0  0  0  0  0  0  0  0
   -6.2833   -6.7881  -24.5231 C   0  0  0  0  0  0  0  0  0  0  0  0
   -5.0739   -7.6709  -24.4331 Cl  0  0  0  0  0  0  0  0  0  0  0  0
   -6.3833   -5.5630  -23.6635 C   0  0  0  0  0  0  0  0  0  0  0  0
   -7.5926   -4.6803  -23.7535 C   0  0  0  0  0  0  0  0  0  0  0  0
   -5.9102   -1.3274  -20.1806 C   0  0  0  0  0  0  0  0  0  0  0  0
   -6.5027   -1.3525  -18.8029 C   0  0  0  0  0  0  0  0  0  0  0  0
   -6.0495   -0.3601  -17.7734 N   0  0  0  0  0  0  0  0  0  0  0  0
   -5.0038    0.6572  -18.1217 C   0  0  0  0  0  0  0  0  0  0  0  0
   -4.4112    0.6823  -19.4995 C   0  0  0  0  0  0  0  0  0  0  0  0
   -3.3654    1.6997  -19.8477 C   0  0  0  0  0  0  0  0  0  0  0  0
   -2.7729    1.7247  -21.2255 C   0  0  0  0  0  0  0  0  0  0  0  0
   -3.2261    0.7324  -22.2549 C   0  0  0  0  0  0  0  0  0  0  0  0
   -4.2718   -0.2850  -21.9067 C   0  0  0  0  0  0  0  0  0  0  0  0
   -4.8644   -0.3100  -20.5290 C   0  0  0  0  0  0  0  0  0  0  0  0
  -11.2208   -2.0319  -24.0236 C   0  0  0  0  0  0  0  0  0  0  0  0
  -11.5096   -1.0421  -22.9342 C   0  0  0  0  0  0  0  0  0  0  0  0
  -11.7026    0.4071  -23.2695 N   0  0  0  0  0  0  0  0  0  0  0  0
  -13.0766    1.0080  -23.2371 C   0  0  0  0  0  0  0  0  0  0  0  0
  -13.2696    2.4572  -23.5723 C   0  0  0  0  0  0  0  0  0  0  0  0
  -12.0885    3.3057  -23.9400 O   0  0  0  0  0  0  0  0  0  0  0  0
  -10.7145    2.7049  -23.9724 C   0  0  0  0  0  0  0  0  0  0  0  0
  -10.5215    1.2556  -23.6371 C   0  0  0  0  0  0  0  0  0  0  0  0
  -11.8338    1.3926  -23.4974 H   0  0  0  0  0  0  0  0  0  0  0  0
  2  1  1  0  0  0
  2  3  1  0  0  0
  3  4  1  0  0  0
  4 19  1  0  0  0
 19 20  2  0  0  0
 20 21  1  0  0  0
 21 22  2  0  0  0
 22 23  1  0  0  0
 23 24  2  0  0  0
 24 25  1  0  0  0
 25 26  2  0  0  0
 26 27  1  0  0  0
 27 28  2  0  0  0
  4  5  1  0  0  0
  5  6  2  0  0  0
  5  7  1  0  0  0
  7  8  1  0  0  0
  8  9  1  0  0  0
  9 29  1  0  0  0
 29 30  1  0  0  0
 30 31  1  0  0  0
 31 32  1  0  0  0
 32 33  1  0  0  0
 33 34  1  0  0  0
 34 35  1  0  0  0
 35 36  1  0  0  0
  9 10  1  0  0  0
 10 11  2  0  0  0
 10 12  1  0  0  0
 12 13  2  0  0  0
 13 14  1  0  0  0
 14 15  2  0  0  0
 15 16  1  0  0  0
 15 17  1  0  0  0
 17 18  2  0  0  0
  7  2  1  0  0  0
 36 31  1  0  0  0
 18 12  1  0  0  0
 28 19  1  0  0  0
 18  7  1  0  0  0
 28 23  1  0  0  0
 31 37  1  0  0  0
M  CHG 1  31   1
M  END
> <minimizedAffinity>
-8.86350

> <CNNscore>
0.1620088518

> <CNNaffinity>
6.0124363899

> <CNN_VS>
0.9740679264

> <CNNaffinity_variance>
0.2973167598

$$$$



 37 42  0  0  0  0  0  0  0  0999 V2000
  -10.2776    1.9173  -22.8346 C   0  0  0  0  0  0  0  0  0  0  0  0
   -9.0611    1.0707  -22.6034 C   0  0  0  0  0  0  0  0  0  0  0  0
   -7.8961    1.8816  -22.1183 C   0  0  0  0  0  0  0  0  0  0  0  0
   -6.7359    0.9523  -21.9176 N   0  0  0  0  0  0  0  0  0  0  0  0
   -7.1839   -0.4330  -22.2787 C   0  0  0  0  0  0  0  0  0  0  0  0
   -6.3425   -1.6736  -22.2252 O   0  0  0  0  0  0  0  0  0  0  0  0
   -8.6209   -0.3598  -22.7025 C   0  0  0  0  0  0  0  0  0  0  0  0
   -8.0401   -1.7420  -22.7511 C   0  0  0  0  0  0  0  0  0  0  0  0
   -8.8881   -2.8966  -23.1959 N   0  0  0  0  0  0  0  0  0  0  0  0
  -10.3168   -2.6691  -23.5921 C   0  0  0  0  0  0  0  0  0  0  0  0
  -11.1647   -3.8237  -24.0369 O   0  0  0  0  0  0  0  0  0  0  0  0
  -10.8976   -1.2869  -23.5435 C   0  0  0  0  0  0  0  0  0  0  0  0
  -12.3263   -1.0594  -23.9397 C   0  0  0  0  0  0  0  0  0  0  0  0
  -12.9070    0.3227  -23.8911 C   0  0  0  0  0  0  0  0  0  0  0  0
  -12.0591    1.4774  -23.4463 C   0  0  0  0  0  0  0  0  0  0  0  0
  -12.6399    2.8595  -23.3977 Cl  0  0  0  0  0  0  0  0  0  0  0  0
  -10.6304    1.2499  -23.0501 C   0  0  0  0  0  0  0  0  0  0  0  0
  -10.0497   -0.1323  -23.0987 C   0  0  0  0  0  0  0  0  0  0  0  0
   -5.3680    1.3401  -21.4398 C   0  0  0  0  0  0  0  0  0  0  0  0
   -4.6126    0.4345  -20.5129 C   0  0  0  0  0  0  0  0  0  0  0  0
   -3.2447    0.8223  -20.0351 N   0  0  0  0  0  0  0  0  0  0  0  0
   -2.6322    2.1158  -20.4842 C   0  0  0  0  0  0  0  0  0  0  0  0
   -3.3876    3.0214  -21.4112 C   0  0  0  0  0  0  0  0  0  0  0  0
   -2.7750    4.3150  -21.8603 C   0  0  0  0  0  0  0  0  0  0  0  0
   -3.5305    5.2206  -22.7872 C   0  0  0  0  0  0  0  0  0  0  0  0
   -4.8983    4.8327  -23.2650 C   0  0  0  0  0  0  0  0  0  0  0  0
   -5.5109    3.5392  -22.8159 C   0  0  0  0  0  0  0  0  0  0  0  0
   -4.7555    2.6336  -21.8890 C   0  0  0  0  0  0  0  0  0  0  0  0
   -8.3072   -4.2788  -23.2445 C   0  0  0  0  0  0  0  0  0  0  0  0
   -7.2210   -4.6017  -24.2272 C   0  0  0  0  0  0  0  0  0  0  0  0
   -7.5144   -5.4791  -25.4079 N   0  0  0  0  0  0  0  0  0  0  0  0
   -8.8101   -6.2316  -25.4796 C   0  0  0  0  0  0  0  0  0  0  0  0
   -9.1034   -7.1090  -26.6602 C   0  0  0  0  0  0  0  0  0  0  0  0
   -8.1012   -7.2340  -27.7692 O   0  0  0  0  0  0  0  0  0  0  0  0
   -6.8055   -6.4816  -27.6975 C   0  0  0  0  0  0  0  0  0  0  0  0
   -6.5121   -5.6042  -26.5168 C   0  0  0  0  0  0  0  0  0  0  0  0
   -7.7139   -6.0758  -26.2107 H   0  0  0  0  0  0  0  0  0  0  0  0
  2  1  1  0  0  0
  2  3  1  0  0  0
  3  4  1  0  0  0
  4 19  1  0  0  0
 19 20  2  0  0  0
 20 21  1  0  0  0
 21 22  2  0  0  0
 22 23  1  0  0  0
 23 24  2  0  0  0
 24 25  1  0  0  0
 25 26  2  0  0  0
 26 27  1  0  0  0
 27 28  2  0  0  0
  4  5  1  0  0  0
  5  6  2  0  0  0
  5  7  1  0  0  0
  7  8  1  0  0  0
  8  9  1  0  0  0
  9 29  1  0  0  0
 29 30  1  0  0  0
 30 31  1  0  0  0
 31 32  1  0  0  0
 32 33  1  0  0  0
 33 34  1  0  0  0
 34 35  1  0  0  0
 35 36  1  0  0  0
  9 10  1  0  0  0
 10 11  2  0  0  0
 10 12  1  0  0  0
 12 13  2  0  0  0
 13 14  1  0  0  0
 14 15  2  0  0  0
 15 16  1  0  0  0
 15 17  1  0  0  0
 17 18  2  0  0  0
  7  2  1  0  0  0
 36 31  1  0  0  0
 18 12  1  0  0  0
 28 19  1  0  0  0
 18  7  1  0  0  0
 28 23  1  0  0  0
 31 37  1  0  0  0
M  CHG 1  31   1
M  END
> <minimizedAffinity>
-8.04038

> <CNNscore>
0.1575895846

> <CNNaffinity>
6.0671796799

> <CNN_VS>
0.9561243057

> <CNNaffinity_variance>
0.2266741693

$$$$



 37 42  0  0  0  0  0  0  0  0999 V2000
   -9.8935   -1.5782  -23.9776 C   0  0  0  0  0  0  0  0  0  0  0  0
   -9.7241   -0.0911  -23.8776 C   0  0  0  0  0  0  0  0  0  0  0  0
  -11.0421    0.6205  -23.7976 C   0  0  0  0  0  0  0  0  0  0  0  0
  -10.7691    2.0923  -23.7011 N   0  0  0  0  0  0  0  0  0  0  0  0
   -9.2824    2.2903  -23.7214 C   0  0  0  0  0  0  0  0  0  0  0  0
   -8.5672    3.6066  -23.6459 O   0  0  0  0  0  0  0  0  0  0  0  0
   -8.6365    0.9409  -23.8305 C   0  0  0  0  0  0  0  0  0  0  0  0
   -7.6628    2.0805  -23.7733 C   0  0  0  0  0  0  0  0  0  0  0  0
   -6.1883    1.8104  -23.8261 N   0  0  0  0  0  0  0  0  0  0  0  0
   -5.6874    0.4009  -23.9361 C   0  0  0  0  0  0  0  0  0  0  0  0
   -4.2128    0.1309  -23.9888 O   0  0  0  0  0  0  0  0  0  0  0  0
   -6.6611   -0.7388  -23.9933 C   0  0  0  0  0  0  0  0  0  0  0  0
   -6.1602   -2.1484  -24.1033 C   0  0  0  0  0  0  0  0  0  0  0  0
   -7.1338   -3.2879  -24.1605 C   0  0  0  0  0  0  0  0  0  0  0  0
   -8.6084   -3.0179  -24.1078 C   0  0  0  0  0  0  0  0  0  0  0  0
   -9.5821   -4.1576  -24.1650 Cl  0  0  0  0  0  0  0  0  0  0  0  0
   -9.1093   -1.6083  -23.9978 C   0  0  0  0  0  0  0  0  0  0  0  0
   -8.1356   -0.4688  -23.9405 C   0  0  0  0  0  0  0  0  0  0  0  0
  -11.8016    3.1759  -23.6016 C   0  0  0  0  0  0  0  0  0  0  0  0
  -12.7165    3.2334  -22.4144 C   0  0  0  0  0  0  0  0  0  0  0  0
  -13.7490    4.3169  -22.3150 N   0  0  0  0  0  0  0  0  0  0  0  0
  -13.8665    5.3430  -23.4028 C   0  0  0  0  0  0  0  0  0  0  0  0
  -12.9515    5.2855  -24.5901 C   0  0  0  0  0  0  0  0  0  0  0  0
  -13.0691    6.3116  -25.6780 C   0  0  0  0  0  0  0  0  0  0  0  0
  -12.1541    6.2540  -26.8652 C   0  0  0  0  0  0  0  0  0  0  0  0
  -11.1217    5.1704  -26.9645 C   0  0  0  0  0  0  0  0  0  0  0  0
  -11.0042    4.1444  -25.8767 C   0  0  0  0  0  0  0  0  0  0  0  0
  -11.9191    4.2019  -24.6895 C   0  0  0  0  0  0  0  0  0  0  0  0
   -5.2146    2.9501  -23.7688 C   0  0  0  0  0  0  0  0  0  0  0  0
   -4.9876    3.6785  -22.4774 C   0  0  0  0  0  0  0  0  0  0  0  0
   -3.9805    3.1628  -21.4926 N   0  0  0  0  0  0  0  0  0  0  0  0
   -2.6643    3.8636  -21.3293 C   0  0  0  0  0  0  0  0  0  0  0  0
   -1.6572    3.3480  -20.3445 C   0  0  0  0  0  0  0  0  0  0  0  0
   -1.9662    2.1316  -19.5229 O   0  0  0  0  0  0  0  0  0  0  0  0
   -3.2824    1.4309  -19.6862 C   0  0  0  0  0  0  0  0  0  0  0  0
   -4.2895    1.9465  -20.6710 C   0  0  0  0  0  0  0  0  0  0  0  0
   -3.2957    2.8122  -20.8229 H   0  0  0  0  0  0  0  0  0  0  0  0
  2  1  1  0  0  0
  2  3  1  0  0  0
  3  4  1  0  0  0
  4 19  1  0  0  0
 19 20  2  0  0  0
 20 21  1  0  0  0
 21 22  2  0  0  0
 22 23  1  0  0  0
 23 24  2  0  0  0
 24 25  1  0  0  0
 25 26  2  0  0  0
 26 27  1  0  0  0
 27 28  2  0  0  0
  4  5  1  0  0  0
  5  6  2  0  0  0
  5  7  1  0  0  0
  7  8  1  0  0  0
  8  9  1  0  0  0
  9 29  1  0  0  0
 29 30  1  0  0  0
 30 31  1  0  0  0
 31 32  1  0  0  0
 32 33  1  0  0  0
 33 34  1  0  0  0
 34 35  1  0  0  0
 35 36  1  0  0  0
  9 10  1  0  0  0
 10 11  2  0  0  0
 10 12  1  0  0  0
 12 13  2  0  0  0
 13 14  1  0  0  0
 14 15  2  0  0  0
 15 16  1  0  0  0
 15 17  1  0  0  0
 17 18  2  0  0  0
  7  2  1  0  0  0
 36 31  1  0  0  0
 18 12  1  0  0  0
 28 19  1  0  0  0
 18  7  1  0  0  0
 28 23  1  0  0  0
 31 37  1  0  0  0
M  CHG 1  31   1
M  END
> <minimizedAffinity>
-7.50974

> <CNNscore>
0.1567457765

> <CNNaffinity>
5.9845690727

> <CNN_VS>
0.9380559325

> <CNNaffinity_variance>
0.0707778335

$$$$
