


 37 42  0  0  0  0  0  0  0  0999 V2000
    7.4740   -3.4283   23.2579 C   0  0  0  0  0  0  0  0  0  0  0  0
    7.6354   -2.0956   22.5886 C   0  0  0  0  0  0  0  0  0  0  0  0
    6.5644   -1.8458   21.5685 C   0  0  0  0  0  0  0  0  0  0  0  0
    6.8105   -0.4976   20.9587 N   0  0  0  0  0  0  0  0  0  0  0  0
    8.0336    0.0857   21.6019 C   0  0  0  0  0  0  0  0  0  0  0  0
    8.6404    1.4221   21.2922 O   0  0  0  0  0  0  0  0  0  0  0  0
    8.5435   -0.9019   22.6092 C   0  0  0  0  0  0  0  0  0  0  0  0
    9.3596    0.3533   22.5184 C   0  0  0  0  0  0  0  0  0  0  0  0
   10.5657    0.5287   23.3928 N   0  0  0  0  0  0  0  0  0  0  0  0
   10.9556   -0.5512   24.3581 C   0  0  0  0  0  0  0  0  0  0  0  0
   12.1617   -0.3758   25.2325 O   0  0  0  0  0  0  0  0  0  0  0  0
   10.1395   -1.8065   24.4490 C   0  0  0  0  0  0  0  0  0  0  0  0
   10.5294   -2.8863   25.4143 C   0  0  0  0  0  0  0  0  0  0  0  0
    9.7132   -4.1415   25.5051 C   0  0  0  0  0  0  0  0  0  0  0  0
    8.5071   -4.3169   24.6307 C   0  0  0  0  0  0  0  0  0  0  0  0
    7.6909   -5.5722   24.7216 Cl  0  0  0  0  0  0  0  0  0  0  0  0
    8.1172   -3.2370   23.6654 C   0  0  0  0  0  0  0  0  0  0  0  0
    8.9334   -1.9818   23.5746 C   0  0  0  0  0  0  0  0  0  0  0  0
    5.9795    0.1530   19.8929 C   0  0  0  0  0  0  0  0  0  0  0  0
    6.4048    0.0728   18.4568 C   0  0  0  0  0  0  0  0  0  0  0  0
    5.5738    0.7234   17.3909 N   0  0  0  0  0  0  0  0  0  0  0  0
    4.3173    1.4542   17.7613 C   0  0  0  0  0  0  0  0  0  0  0  0
    3.8919    1.5345   19.1975 C   0  0  0  0  0  0  0  0  0  0  0  0
    2.6354    2.2653   19.5678 C   0  0  0  0  0  0  0  0  0  0  0  0
    2.2101    2.3455   21.0040 C   0  0  0  0  0  0  0  0  0  0  0  0
    3.0412    1.6949   22.0698 C   0  0  0  0  0  0  0  0  0  0  0  0
    4.2976    0.9641   21.6994 C   0  0  0  0  0  0  0  0  0  0  0  0
    4.7230    0.8838   20.2633 C   0  0  0  0  0  0  0  0  0  0  0  0
   11.3819    1.7840   23.3019 C   0  0  0  0  0  0  0  0  0  0  0  0
   11.0116    2.8494   22.3132 C   0  0  0  0  0  0  0  0  0  0  0  0
   10.2676    4.0695   22.7689 N   0  0  0  0  0  0  0  0  0  0  0  0
    8.8211    3.9664   23.1524 C   0  0  0  0  0  0  0  0  0  0  0  0
    8.0772    5.1865   23.6080 C   0  0  0  0  0  0  0  0  0  0  0  0
    8.7797    6.5099   23.6803 O   0  0  0  0  0  0  0  0  0  0  0  0
   10.2261    6.6131   23.2968 C   0  0  0  0  0  0  0  0  0  0  0  0
   10.9701    5.3929   22.8411 C   0  0  0  0  0  0  0  0  0  0  0  0
    9.7617    4.8993   23.0787 H   0  0  0  0  0  0  0  0  0  0  0  0
  2  1  1  0  0  0
  2  3  1  0  0  0
  3  4  1  0  0  0
  4 19  1  0  0  0
 19 20  2  0  0  0
 20 21  1  0  0  0
 21 22  2  0  0  0
 22 23  1  0  0  0
 23 24  2  0  0  0
 24 25  1  0  0  0
 25 26  2  0  0  0
 26 27  1  0  0  0
 27 28  2  0  0  0
  4  5  1  0  0  0
  5  6  2  0  0  0
  5  7  1  0  0  0
  7  8  1  0  0  0
  8  9  1  0  0  0
  9 29  1  0  0  0
 29 30  1  0  0  0
 30 31  1  0  0  0
 31 32  1  0  0  0
 32 33  1  0  0  0
 33 34  1  0  0  0
 34 35  1  0  0  0
 35 36  1  0  0  0
  9 10  1  0  0  0
 10 11  2  0  0  0
 10 12  1  0  0  0
 12 13  2  0  0  0
 13 14  1  0  0  0
 14 15  2  0  0  0
 15 16  1  0  0  0
 15 17  1  0  0  0
 17 18  2  0  0  0
  7  2  1  0  0  0
 36 31  1  0  0  0
 18 12  1  0  0  0
 28 19  1  0  0  0
 18  7  1  0  0  0
 28 23  1  0  0  0
 31 37  1  0  0  0
M  CHG 1  31   1
M  END
> <minimizedAffinity>
-9.51942

> <CNNscore>
0.5673944354

> <CNNaffinity>
6.8527326584

> <CNN_VS>
3.8882024288

> <CNNaffinity_variance>
0.0602760836

$$$$



 37 42  0  0  0  0  0  0  0  0999 V2000
    6.9720   -0.5313   20.0878 C   0  0  0  0  0  0  0  0  0  0  0  0
    7.8523    0.0002   21.1799 C   0  0  0  0  0  0  0  0  0  0  0  0
    8.9253   -0.9760   21.5618 C   0  0  0  0  0  0  0  0  0  0  0  0
    9.7476   -0.3574   22.6532 N   0  0  0  0  0  0  0  0  0  0  0  0
    9.1827    1.0011   22.9458 C   0  0  0  0  0  0  0  0  0  0  0  0
    9.6987    1.9686   23.9694 O   0  0  0  0  0  0  0  0  0  0  0  0
    8.0114    1.2220   22.0353 C   0  0  0  0  0  0  0  0  0  0  0  0
    8.2929    2.3714   22.9570 C   0  0  0  0  0  0  0  0  0  0  0  0
    7.4318    3.5987   22.9101 N   0  0  0  0  0  0  0  0  0  0  0  0
    6.2892    3.6767   21.9415 C   0  0  0  0  0  0  0  0  0  0  0  0
    5.4282    4.9041   21.8946 O   0  0  0  0  0  0  0  0  0  0  0  0
    6.0076    2.5273   21.0197 C   0  0  0  0  0  0  0  0  0  0  0  0
    4.8650    2.6053   20.0511 C   0  0  0  0  0  0  0  0  0  0  0  0
    4.5835    1.4559   19.1293 C   0  0  0  0  0  0  0  0  0  0  0  0
    5.4445    0.2286   19.1762 C   0  0  0  0  0  0  0  0  0  0  0  0
    5.1629   -0.9208   18.2544 Cl  0  0  0  0  0  0  0  0  0  0  0  0
    6.5872    0.1506   20.1449 C   0  0  0  0  0  0  0  0  0  0  0  0
    6.8687    1.3000   21.0666 C   0  0  0  0  0  0  0  0  0  0  0  0
   10.9275   -0.9867   23.3327 C   0  0  0  0  0  0  0  0  0  0  0  0
   12.3145   -0.7168   22.8297 C   0  0  0  0  0  0  0  0  0  0  0  0
   13.4945   -1.3461   23.5091 N   0  0  0  0  0  0  0  0  0  0  0  0
   13.2873   -2.2453   24.6917 C   0  0  0  0  0  0  0  0  0  0  0  0
   11.9001   -2.5152   25.1947 C   0  0  0  0  0  0  0  0  0  0  0  0
   11.6930   -3.4145   26.3774 C   0  0  0  0  0  0  0  0  0  0  0  0
   10.3058   -3.6843   26.8804 C   0  0  0  0  0  0  0  0  0  0  0  0
    9.1260   -3.0550   26.2008 C   0  0  0  0  0  0  0  0  0  0  0  0
    9.3332   -2.1558   25.0183 C   0  0  0  0  0  0  0  0  0  0  0  0
   10.7202   -1.8859   24.5153 C   0  0  0  0  0  0  0  0  0  0  0  0
    7.7134    4.7482   23.8319 C   0  0  0  0  0  0  0  0  0  0  0  0
    8.2882    6.0224   23.2880 C   0  0  0  0  0  0  0  0  0  0  0  0
    9.7255    6.0750   22.8621 N   0  0  0  0  0  0  0  0  0  0  0  0
   10.3631    7.3929   22.5352 C   0  0  0  0  0  0  0  0  0  0  0  0
   11.8004    7.4456   22.1093 C   0  0  0  0  0  0  0  0  0  0  0  0
   12.6002    6.1804   22.0104 O   0  0  0  0  0  0  0  0  0  0  0  0
   11.9627    4.8626   22.3373 C   0  0  0  0  0  0  0  0  0  0  0  0
   10.5253    4.8099   22.7632 C   0  0  0  0  0  0  0  0  0  0  0  0
   10.7029    6.1109   22.5725 H   0  0  0  0  0  0  0  0  0  0  0  0
  2  1  1  0  0  0
  2  3  1  0  0  0
  3  4  1  0  0  0
  4 19  1  0  0  0
 19 20  2  0  0  0
 20 21  1  0  0  0
 21 22  2  0  0  0
 22 23  1  0  0  0
 23 24  2  0  0  0
 24 25  1  0  0  0
 25 26  2  0  0  0
 26 27  1  0  0  0
 27 28  2  0  0  0
  4  5  1  0  0  0
  5  6  2  0  0  0
  5  7  1  0  0  0
  7  8  1  0  0  0
  8  9  1  0  0  0
  9 29  1  0  0  0
 29 30  1  0  0  0
 30 31  1  0  0  0
 31 32  1  0  0  0
 32 33  1  0  0  0
 33 34  1  0  0  0
 34 35  1  0  0  0
 35 36  1  0  0  0
  9 10  1  0  0  0
 10 11  2  0  0  0
 10 12  1  0  0  0
 12 13  2  0  0  0
 13 14  1  0  0  0
 14 15  2  0  0  0
 15 16  1  0  0  0
 15 17  1  0  0  0
 17 18  2  0  0  0
  7  2  1  0  0  0
 36 31  1  0  0  0
 18 12  1  0  0  0
 28 19  1  0  0  0
 18  7  1  0  0  0
 28 23  1  0  0  0
 31 37  1  0  0  0
M  CHG 1  31   1
M  END
> <minimizedAffinity>
-8.80519

> <CNNscore>
0.5249990821

> <CNNaffinity>
6.9396910667

> <CNN_VS>
3.6433315277

> <CNNaffinity_variance>
0.1743482500

$$$$



 37 42  0  0  0  0  0  0  0  0999 V2000
   10.5314   -0.4020   22.8157 C   0  0  0  0  0  0  0  0  0  0  0  0
    9.0616   -0.6094   22.5988 C   0  0  0  0  0  0  0  0  0  0  0  0
    8.5928   -0.0027   21.3096 C   0  0  0  0  0  0  0  0  0  0  0  0
    7.1206   -0.2611   21.1840 N   0  0  0  0  0  0  0  0  0  0  0  0
    6.6796   -1.0276   22.3957 C   0  0  0  0  0  0  0  0  0  0  0  0
    5.2839   -1.4964   22.6825 O   0  0  0  0  0  0  0  0  0  0  0  0
    7.8792   -1.2429   23.2700 C   0  0  0  0  0  0  0  0  0  0  0  0
    6.6116   -1.8276   23.8187 C   0  0  0  0  0  0  0  0  0  0  0  0
    6.6262   -2.5496   25.1335 N   0  0  0  0  0  0  0  0  0  0  0  0
    7.9084   -2.6868   25.8995 C   0  0  0  0  0  0  0  0  0  0  0  0
    7.9230   -3.4087   27.2143 O   0  0  0  0  0  0  0  0  0  0  0  0
    9.1762   -2.1020   25.3509 C   0  0  0  0  0  0  0  0  0  0  0  0
   10.4584   -2.2392   26.1170 C   0  0  0  0  0  0  0  0  0  0  0  0
   11.7261   -1.6544   25.5683 C   0  0  0  0  0  0  0  0  0  0  0  0
   11.7115   -0.9325   24.2536 C   0  0  0  0  0  0  0  0  0  0  0  0
   12.9792   -0.3477   23.7049 Cl  0  0  0  0  0  0  0  0  0  0  0  0
   10.4292   -0.7953   23.4875 C   0  0  0  0  0  0  0  0  0  0  0  0
    9.1616   -1.3800   24.0361 C   0  0  0  0  0  0  0  0  0  0  0  0
    6.2434    0.1711   20.0466 C   0  0  0  0  0  0  0  0  0  0  0  0
    6.3830   -0.4799   18.7026 C   0  0  0  0  0  0  0  0  0  0  0  0
    5.5058   -0.0478   17.5652 N   0  0  0  0  0  0  0  0  0  0  0  0
    4.4890    1.0354   17.7719 C   0  0  0  0  0  0  0  0  0  0  0  0
    4.3494    1.6865   19.1160 C   0  0  0  0  0  0  0  0  0  0  0  0
    3.3325    2.7698   19.3227 C   0  0  0  0  0  0  0  0  0  0  0  0
    3.1930    3.4208   20.6668 C   0  0  0  0  0  0  0  0  0  0  0  0
    4.0702    2.9886   21.8042 C   0  0  0  0  0  0  0  0  0  0  0  0
    5.0870    1.9053   21.5975 C   0  0  0  0  0  0  0  0  0  0  0  0
    5.2266    1.2543   20.2534 C   0  0  0  0  0  0  0  0  0  0  0  0
    5.3584   -3.1344   25.6821 C   0  0  0  0  0  0  0  0  0  0  0  0
    5.0381   -4.5812   25.4502 C   0  0  0  0  0  0  0  0  0  0  0  0
    5.5959   -5.2902   24.2518 N   0  0  0  0  0  0  0  0  0  0  0  0
    5.0597   -4.9869   22.8841 C   0  0  0  0  0  0  0  0  0  0  0  0
    5.6176   -5.6958   21.6857 C   0  0  0  0  0  0  0  0  0  0  0  0
    6.7116   -6.7080   21.8549 O   0  0  0  0  0  0  0  0  0  0  0  0
    7.2478   -7.0112   23.2226 C   0  0  0  0  0  0  0  0  0  0  0  0
    6.6899   -6.3023   24.4211 C   0  0  0  0  0  0  0  0  0  0  0  0
    5.9752   -5.7722   23.4369 H   0  0  0  0  0  0  0  0  0  0  0  0
  2  1  1  0  0  0
  2  3  1  0  0  0
  3  4  1  0  0  0
  4 19  1  0  0  0
 19 20  2  0  0  0
 20 21  1  0  0  0
 21 22  2  0  0  0
 22 23  1  0  0  0
 23 24  2  0  0  0
 24 25  1  0  0  0
 25 26  2  0  0  0
 26 27  1  0  0  0
 27 28  2  0  0  0
  4  5  1  0  0  0
  5  6  2  0  0  0
  5  7  1  0  0  0
  7  8  1  0  0  0
  8  9  1  0  0  0
  9 29  1  0  0  0
 29 30  1  0  0  0
 30 31  1  0  0  0
 31 32  1  0  0  0
 32 33  1  0  0  0
 33 34  1  0  0  0
 34 35  1  0  0  0
 35 36  1  0  0  0
  9 10  1  0  0  0
 10 11  2  0  0  0
 10 12  1  0  0  0
 12 13  2  0  0  0
 13 14  1  0  0  0
 14 15  2  0  0  0
 15 16  1  0  0  0
 15 17  1  0  0  0
 17 18  2  0  0  0
  7  2  1  0  0  0
 36 31  1  0  0  0
 18 12  1  0  0  0
 28 19  1  0  0  0
 18  7  1  0  0  0
 28 23  1  0  0  0
 31 37  1  0  0  0
M  CHG 1  31   1
M  END
> <minimizedAffinity>
-9.43644

> <CNNscore>
0.4478197694

> <CNNaffinity>
6.6050405502

> <CNN_VS>
2.9578676224

> <CNNaffinity_variance>
0.1976026744

$$$$



 37 42  0  0  0  0  0  0  0  0999 V2000
   10.8087   -2.1195   25.4005 C   0  0  0  0  0  0  0  0  0  0  0  0
    9.3277   -2.0808   25.1648 C   0  0  0  0  0  0  0  0  0  0  0  0
    8.6058   -3.1338   25.9522 C   0  0  0  0  0  0  0  0  0  0  0  0
    7.1411   -3.0149   25.6512 N   0  0  0  0  0  0  0  0  0  0  0  0
    6.9579   -1.8885   24.6777 C   0  0  0  0  0  0  0  0  0  0  0  0
    5.6524   -1.4214   24.1053 O   0  0  0  0  0  0  0  0  0  0  0  0
    8.3093   -1.3112   24.3770 C   0  0  0  0  0  0  0  0  0  0  0  0
    7.1826   -0.6354   23.6535 C   0  0  0  0  0  0  0  0  0  0  0  0
    7.4658    0.5104   22.7277 N   0  0  0  0  0  0  0  0  0  0  0  0
    8.8758    0.9803   22.5255 C   0  0  0  0  0  0  0  0  0  0  0  0
    9.1591    2.1260   21.5997 O   0  0  0  0  0  0  0  0  0  0  0  0
   10.0027    0.3045   23.2491 C   0  0  0  0  0  0  0  0  0  0  0  0
   11.4127    0.7744   23.0469 C   0  0  0  0  0  0  0  0  0  0  0  0
   12.5395    0.0986   23.7705 C   0  0  0  0  0  0  0  0  0  0  0  0
   12.2563   -1.0471   24.6963 C   0  0  0  0  0  0  0  0  0  0  0  0
   13.3831   -1.7229   25.4199 Cl  0  0  0  0  0  0  0  0  0  0  0  0
   10.8462   -1.5171   24.8985 C   0  0  0  0  0  0  0  0  0  0  0  0
    9.7195   -0.8413   24.1749 C   0  0  0  0  0  0  0  0  0  0  0  0
    6.0510   -3.8719   26.2231 C   0  0  0  0  0  0  0  0  0  0  0  0
    5.4675   -4.9870   25.4071 C   0  0  0  0  0  0  0  0  0  0  0  0
    4.3774   -5.8440   25.9791 N   0  0  0  0  0  0  0  0  0  0  0  0
    3.8709   -5.5859   27.3672 C   0  0  0  0  0  0  0  0  0  0  0  0
    4.4545   -4.4709   28.1833 C   0  0  0  0  0  0  0  0  0  0  0  0
    3.9480   -4.2128   29.5715 C   0  0  0  0  0  0  0  0  0  0  0  0
    4.5316   -3.0977   30.3875 C   0  0  0  0  0  0  0  0  0  0  0  0
    5.6217   -2.2408   29.8155 C   0  0  0  0  0  0  0  0  0  0  0  0
    6.1282   -2.4988   28.4274 C   0  0  0  0  0  0  0  0  0  0  0  0
    5.5446   -3.6138   27.6113 C   0  0  0  0  0  0  0  0  0  0  0  0
    6.3389    1.1862   22.0041 C   0  0  0  0  0  0  0  0  0  0  0  0
    5.5955    2.3123   22.6590 C   0  0  0  0  0  0  0  0  0  0  0  0
    6.0787    3.7233   22.4989 N   0  0  0  0  0  0  0  0  0  0  0  0
    5.4744    4.6086   21.4495 C   0  0  0  0  0  0  0  0  0  0  0  0
    5.9576    6.0195   21.2895 C   0  0  0  0  0  0  0  0  0  0  0  0
    7.0451    6.5453   22.1788 O   0  0  0  0  0  0  0  0  0  0  0  0
    7.6494    5.6601   23.2281 C   0  0  0  0  0  0  0  0  0  0  0  0
    7.1662    4.2490   23.3882 C   0  0  0  0  0  0  0  0  0  0  0  0
    6.4073    4.6828   22.3901 H   0  0  0  0  0  0  0  0  0  0  0  0
  2  1  1  0  0  0
  2  3  1  0  0  0
  3  4  1  0  0  0
  4 19  1  0  0  0
 19 20  2  0  0  0
 20 21  1  0  0  0
 21 22  2  0  0  0
 22 23  1  0  0  0
 23 24  2  0  0  0
 24 25  1  0  0  0
 25 26  2  0  0  0
 26 27  1  0  0  0
 27 28  2  0  0  0
  4  5  1  0  0  0
  5  6  2  0  0  0
  5  7  1  0  0  0
  7  8  1  0  0  0
  8  9  1  0  0  0
  9 29  1  0  0  0
 29 30  1  0  0  0
 30 31  1  0  0  0
 31 32  1  0  0  0
 32 33  1  0  0  0
 33 34  1  0  0  0
 34 35  1  0  0  0
 35 36  1  0  0  0
  9 10  1  0  0  0
 10 11  2  0  0  0
 10 12  1  0  0  0
 12 13  2  0  0  0
 13 14  1  0  0  0
 14 15  2  0  0  0
 15 16  1  0  0  0
 15 17  1  0  0  0
 17 18  2  0  0  0
  7  2  1  0  0  0
 36 31  1  0  0  0
 18 12  1  0  0  0
 28 19  1  0  0  0
 18  7  1  0  0  0
 28 23  1  0  0  0
 31 37  1  0  0  0
M  CHG 1  31   1
M  END
> <minimizedAffinity>
-7.89689

> <CNNscore>
0.4099271297

> <CNNaffinity>
6.4885969162

> <CNN_VS>
2.6598520279

> <CNNaffinity_variance>
0.1760687828

$$$$



 37 42  0  0  0  0  0  0  0  0999 V2000
   10.5749   -1.3458   22.5995 C   0  0  0  0  0  0  0  0  0  0  0  0
    9.0823   -1.2189   22.5215 C   0  0  0  0  0  0  0  0  0  0  0  0
    8.6356   -0.6355   21.2138 C   0  0  0  0  0  0  0  0  0  0  0  0
    7.1382   -0.5492   21.2322 N   0  0  0  0  0  0  0  0  0  0  0  0
    6.6595   -1.0793   22.5512 C   0  0  0  0  0  0  0  0  0  0  0  0
    5.2302   -1.1782   22.9954 O   0  0  0  0  0  0  0  0  0  0  0  0
    7.8610   -1.4932   23.3481 C   0  0  0  0  0  0  0  0  0  0  0  0
    6.5559   -1.7112   24.0545 C   0  0  0  0  0  0  0  0  0  0  0  0
    6.5391   -2.2966   25.4354 N   0  0  0  0  0  0  0  0  0  0  0  0
    7.8274   -2.6640   26.1100 C   0  0  0  0  0  0  0  0  0  0  0  0
    7.8106   -3.2494   27.4909 O   0  0  0  0  0  0  0  0  0  0  0  0
    9.1327   -2.4460   25.4036 C   0  0  0  0  0  0  0  0  0  0  0  0
   10.4210   -2.8134   26.0782 C   0  0  0  0  0  0  0  0  0  0  0  0
   11.7262   -2.5954   25.3719 C   0  0  0  0  0  0  0  0  0  0  0  0
   11.7430   -2.0100   23.9909 C   0  0  0  0  0  0  0  0  0  0  0  0
   13.0482   -1.7920   23.2845 Cl  0  0  0  0  0  0  0  0  0  0  0  0
   10.4546   -1.6426   23.3163 C   0  0  0  0  0  0  0  0  0  0  0  0
    9.1495   -1.8606   24.0227 C   0  0  0  0  0  0  0  0  0  0  0  0
    6.2716   -0.0249   20.1258 C   0  0  0  0  0  0  0  0  0  0  0  0
    6.3114   -0.6699   18.7722 C   0  0  0  0  0  0  0  0  0  0  0  0
    5.4448   -0.1456   17.6658 N   0  0  0  0  0  0  0  0  0  0  0  0
    4.5384    1.0237   17.9131 C   0  0  0  0  0  0  0  0  0  0  0  0
    4.4986    1.6687   19.2668 C   0  0  0  0  0  0  0  0  0  0  0  0
    3.5922    2.8381   19.5140 C   0  0  0  0  0  0  0  0  0  0  0  0
    3.5525    3.4830   20.8677 C   0  0  0  0  0  0  0  0  0  0  0  0
    4.4190    2.9587   21.9740 C   0  0  0  0  0  0  0  0  0  0  0  0
    5.3254    1.7894   21.7267 C   0  0  0  0  0  0  0  0  0  0  0  0
    5.3652    1.1444   20.3732 C   0  0  0  0  0  0  0  0  0  0  0  0
    5.2338   -2.5146   26.1418 C   0  0  0  0  0  0  0  0  0  0  0  0
    4.4407   -1.3395   26.6315 C   0  0  0  0  0  0  0  0  0  0  0  0
    5.1463   -0.1049   27.1089 N   0  0  0  0  0  0  0  0  0  0  0  0
    5.5805    0.9393   26.1234 C   0  0  0  0  0  0  0  0  0  0  0  0
    6.2861    2.1738   26.6007 C   0  0  0  0  0  0  0  0  0  0  0  0
    6.5576    2.3642   28.0636 O   0  0  0  0  0  0  0  0  0  0  0  0
    6.1235    1.3201   29.0491 C   0  0  0  0  0  0  0  0  0  0  0  0
    5.4178    0.0855   28.5718 C   0  0  0  0  0  0  0  0  0  0  0  0
    5.6261    0.7346   27.4335 H   0  0  0  0  0  0  0  0  0  0  0  0
  2  1  1  0  0  0
  2  3  1  0  0  0
  3  4  1  0  0  0
  4 19  1  0  0  0
 19 20  2  0  0  0
 20 21  1  0  0  0
 21 22  2  0  0  0
 22 23  1  0  0  0
 23 24  2  0  0  0
 24 25  1  0  0  0
 25 26  2  0  0  0
 26 27  1  0  0  0
 27 28  2  0  0  0
  4  5  1  0  0  0
  5  6  2  0  0  0
  5  7  1  0  0  0
  7  8  1  0  0  0
  8  9  1  0  0  0
  9 29  1  0  0  0
 29 30  1  0  0  0
 30 31  1  0  0  0
 31 32  1  0  0  0
 32 33  1  0  0  0
 33 34  1  0  0  0
 34 35  1  0  0  0
 35 36  1  0  0  0
  9 10  1  0  0  0
 10 11  2  0  0  0
 10 12  1  0  0  0
 12 13  2  0  0  0
 13 14  1  0  0  0
 14 15  2  0  0  0
 15 16  1  0  0  0
 15 17  1  0  0  0
 17 18  2  0  0  0
  7  2  1  0  0  0
 36 31  1  0  0  0
 18 12  1  0  0  0
 28 19  1  0  0  0
 18  7  1  0  0  0
 28 23  1  0  0  0
 31 37  1  0  0  0
M  CHG 1  31   1
M  END
> <minimizedAffinity>
-8.41301

> <CNNscore>
0.3628358543

> <CNNaffinity>
6.3493452072

> <CNN_VS>
2.3037700653

> <CNNaffinity_variance>
0.2307603806

$$$$



 37 42  0  0  0  0  0  0  0  0999 V2000
    7.1594    0.1253   20.2694 C   0  0  0  0  0  0  0  0  0  0  0  0
    7.5501    0.0570   21.7161 C   0  0  0  0  0  0  0  0  0  0  0  0
    8.9681   -0.3982   21.8943 C   0  0  0  0  0  0  0  0  0  0  0  0
    9.2622   -0.4340   23.3648 N   0  0  0  0  0  0  0  0  0  0  0  0
    8.0258   -0.0008   24.0953 C   0  0  0  0  0  0  0  0  0  0  0  0
    7.8742    0.1096   25.5836 O   0  0  0  0  0  0  0  0  0  0  0  0
    6.9676    0.3027   23.0764 C   0  0  0  0  0  0  0  0  0  0  0  0
    6.5245    0.5053   24.4950 C   0  0  0  0  0  0  0  0  0  0  0  0
    5.1289    0.9724   24.7854 N   0  0  0  0  0  0  0  0  0  0  0  0
    4.1766    1.2369   23.6571 C   0  0  0  0  0  0  0  0  0  0  0  0
    2.7810    1.7040   23.9475 O   0  0  0  0  0  0  0  0  0  0  0  0
    4.6197    1.0343   22.2384 C   0  0  0  0  0  0  0  0  0  0  0  0
    3.6673    1.2988   21.1102 C   0  0  0  0  0  0  0  0  0  0  0  0
    4.1105    1.0962   19.6916 C   0  0  0  0  0  0  0  0  0  0  0  0
    5.5060    0.6291   19.4012 C   0  0  0  0  0  0  0  0  0  0  0  0
    5.9491    0.4265   17.9825 Cl  0  0  0  0  0  0  0  0  0  0  0  0
    6.4584    0.3646   20.5294 C   0  0  0  0  0  0  0  0  0  0  0  0
    6.0152    0.5672   21.9480 C   0  0  0  0  0  0  0  0  0  0  0  0
   10.5640   -0.8329   23.9942 C   0  0  0  0  0  0  0  0  0  0  0  0
   11.7878    0.0082   23.7831 C   0  0  0  0  0  0  0  0  0  0  0  0
   13.0896   -0.3907   24.4126 N   0  0  0  0  0  0  0  0  0  0  0  0
   13.1675   -1.6307   25.2531 C   0  0  0  0  0  0  0  0  0  0  0  0
   11.9435   -2.4717   25.4641 C   0  0  0  0  0  0  0  0  0  0  0  0
   12.0213   -3.7117   26.3047 C   0  0  0  0  0  0  0  0  0  0  0  0
   10.7973   -4.5527   26.5157 C   0  0  0  0  0  0  0  0  0  0  0  0
    9.4956   -4.1538   25.8863 C   0  0  0  0  0  0  0  0  0  0  0  0
    9.4178   -2.9138   25.0458 C   0  0  0  0  0  0  0  0  0  0  0  0
   10.6417   -2.0728   24.8347 C   0  0  0  0  0  0  0  0  0  0  0  0
    4.6858    1.1750   26.2041 C   0  0  0  0  0  0  0  0  0  0  0  0
    3.9568    0.0806   26.9257 C   0  0  0  0  0  0  0  0  0  0  0  0
    4.7264   -1.0259   27.5838 N   0  0  0  0  0  0  0  0  0  0  0  0
    4.9044   -1.0329   29.0733 C   0  0  0  0  0  0  0  0  0  0  0  0
    5.6740   -2.1394   29.7314 C   0  0  0  0  0  0  0  0  0  0  0  0
    6.2656   -3.2391   28.9003 O   0  0  0  0  0  0  0  0  0  0  0  0
    6.0875   -3.2322   27.4109 C   0  0  0  0  0  0  0  0  0  0  0  0
    5.3179   -2.1256   26.7527 C   0  0  0  0  0  0  0  0  0  0  0  0
    5.2497   -1.7784   28.0314 H   0  0  0  0  0  0  0  0  0  0  0  0
  2  1  1  0  0  0
  2  3  1  0  0  0
  3  4  1  0  0  0
  4 19  1  0  0  0
 19 20  2  0  0  0
 20 21  1  0  0  0
 21 22  2  0  0  0
 22 23  1  0  0  0
 23 24  2  0  0  0
 24 25  1  0  0  0
 25 26  2  0  0  0
 26 27  1  0  0  0
 27 28  2  0  0  0
  4  5  1  0  0  0
  5  6  2  0  0  0
  5  7  1  0  0  0
  7  8  1  0  0  0
  8  9  1  0  0  0
  9 29  1  0  0  0
 29 30  1  0  0  0
 30 31  1  0  0  0
 31 32  1  0  0  0
 32 33  1  0  0  0
 33 34  1  0  0  0
 34 35  1  0  0  0
 35 36  1  0  0  0
  9 10  1  0  0  0
 10 11  2  0  0  0
 10 12  1  0  0  0
 12 13  2  0  0  0
 13 14  1  0  0  0
 14 15  2  0  0  0
 15 16  1  0  0  0
 15 17  1  0  0  0
 17 18  2  0  0  0
  7  2  1  0  0  0
 36 31  1  0  0  0
 18 12  1  0  0  0
 28 19  1  0  0  0
 18  7  1  0  0  0
 28 23  1  0  0  0
 31 37  1  0  0  0
M  CHG 1  31   1
M  END
> <minimizedAffinity>
-8.19954

> <CNNscore>
0.3547828197

> <CNNaffinity>
6.1873126030

> <CNN_VS>
2.1951522827

> <CNNaffinity_variance>
0.3345553875

$$$$



 37 42  0  0  0  0  0  0  0  0999 V2000
   10.5457   -0.2029   22.7970 C   0  0  0  0  0  0  0  0  0  0  0  0
    9.0852   -0.4634   22.5752 C   0  0  0  0  0  0  0  0  0  0  0  0
    8.5947    0.1425   21.2937 C   0  0  0  0  0  0  0  0  0  0  0  0
    7.1335   -0.1703   21.1626 N   0  0  0  0  0  0  0  0  0  0  0  0
    6.7210   -0.9694   22.3631 C   0  0  0  0  0  0  0  0  0  0  0  0
    5.3440   -1.4951   22.6416 O   0  0  0  0  0  0  0  0  0  0  0  0
    7.9272   -1.1506   23.2362 C   0  0  0  0  0  0  0  0  0  0  0  0
    6.6824   -1.7907   23.7751 C   0  0  0  0  0  0  0  0  0  0  0  0
    6.7234   -2.5294   25.0799 N   0  0  0  0  0  0  0  0  0  0  0  0
    8.0092   -2.6279   25.8459 C   0  0  0  0  0  0  0  0  0  0  0  0
    8.0502   -3.3665   27.1508 O   0  0  0  0  0  0  0  0  0  0  0  0
    9.2542   -1.9877   25.3071 C   0  0  0  0  0  0  0  0  0  0  0  0
   10.5401   -2.0861   26.0730 C   0  0  0  0  0  0  0  0  0  0  0  0
   11.7849   -1.4459   25.5342 C   0  0  0  0  0  0  0  0  0  0  0  0
   11.7439   -0.7073   24.2293 C   0  0  0  0  0  0  0  0  0  0  0  0
   12.9889   -0.0671   23.6904 Cl  0  0  0  0  0  0  0  0  0  0  0  0
   10.4580   -0.6088   23.4633 C   0  0  0  0  0  0  0  0  0  0  0  0
    9.2132   -1.2490   24.0022 C   0  0  0  0  0  0  0  0  0  0  0  0
    6.2415    0.2434   20.0298 C   0  0  0  0  0  0  0  0  0  0  0  0
    6.4052   -0.3855   18.6780 C   0  0  0  0  0  0  0  0  0  0  0  0
    5.5131    0.0282   17.5453 N   0  0  0  0  0  0  0  0  0  0  0  0
    4.4574    1.0709   17.7645 C   0  0  0  0  0  0  0  0  0  0  0  0
    4.2936    1.6999   19.1164 C   0  0  0  0  0  0  0  0  0  0  0  0
    3.2378    2.7427   19.3355 C   0  0  0  0  0  0  0  0  0  0  0  0
    3.0742    3.3716   20.6874 C   0  0  0  0  0  0  0  0  0  0  0  0
    3.9662    2.9579   21.8201 C   0  0  0  0  0  0  0  0  0  0  0  0
    5.0220    1.9152   21.6009 C   0  0  0  0  0  0  0  0  0  0  0  0
    5.1857    1.2862   20.2491 C   0  0  0  0  0  0  0  0  0  0  0  0
    5.4784   -3.1696   25.6188 C   0  0  0  0  0  0  0  0  0  0  0  0
    5.4249   -3.6191   27.0488 C   0  0  0  0  0  0  0  0  0  0  0  0
    5.2198   -2.6145   28.1436 N   0  0  0  0  0  0  0  0  0  0  0  0
    4.6246   -1.2739   27.8295 C   0  0  0  0  0  0  0  0  0  0  0  0
    4.4195   -0.2692   28.9243 C   0  0  0  0  0  0  0  0  0  0  0  0
    4.8096   -0.6051   30.3332 O   0  0  0  0  0  0  0  0  0  0  0  0
    5.4047   -1.9457   30.6473 C   0  0  0  0  0  0  0  0  0  0  0  0
    5.6098   -2.9504   29.5525 C   0  0  0  0  0  0  0  0  0  0  0  0
    5.0803   -1.9313   28.8881 H   0  0  0  0  0  0  0  0  0  0  0  0
  2  1  1  0  0  0
  2  3  1  0  0  0
  3  4  1  0  0  0
  4 19  1  0  0  0
 19 20  2  0  0  0
 20 21  1  0  0  0
 21 22  2  0  0  0
 22 23  1  0  0  0
 23 24  2  0  0  0
 24 25  1  0  0  0
 25 26  2  0  0  0
 26 27  1  0  0  0
 27 28  2  0  0  0
  4  5  1  0  0  0
  5  6  2  0  0  0
  5  7  1  0  0  0
  7  8  1  0  0  0
  8  9  1  0  0  0
  9 29  1  0  0  0
 29 30  1  0  0  0
 30 31  1  0  0  0
 31 32  1  0  0  0
 32 33  1  0  0  0
 33 34  1  0  0  0
 34 35  1  0  0  0
 35 36  1  0  0  0
  9 10  1  0  0  0
 10 11  2  0  0  0
 10 12  1  0  0  0
 12 13  2  0  0  0
 13 14  1  0  0  0
 14 15  2  0  0  0
 15 16  1  0  0  0
 15 17  1  0  0  0
 17 18  2  0  0  0
  7  2  1  0  0  0
 36 31  1  0  0  0
 18 12  1  0  0  0
 28 19  1  0  0  0
 18  7  1  0  0  0
 28 23  1  0  0  0
 31 37  1  0  0  0
M  CHG 1  31   1
M  END
> <minimizedAffinity>
-8.39887

> <CNNscore>
0.3496251404

> <CNNaffinity>
6.3587303162

> <CNN_VS>
2.2231719494

> <CNNaffinity_variance>
0.1105636805

$$$$



 37 42  0  0  0  0  0  0  0  0999 V2000
   10.7960   -3.4682   25.3581 C   0  0  0  0  0  0  0  0  0  0  0  0
    9.5027   -3.1929   24.6497 C   0  0  0  0  0  0  0  0  0  0  0  0
    8.5058   -4.2955   24.8515 C   0  0  0  0  0  0  0  0  0  0  0  0
    7.2542   -3.9302   24.1097 N   0  0  0  0  0  0  0  0  0  0  0  0
    7.4776   -2.6019   23.4496 C   0  0  0  0  0  0  0  0  0  0  0  0
    6.4855   -1.8596   22.6041 O   0  0  0  0  0  0  0  0  0  0  0  0
    8.8672   -2.1463   23.7833 C   0  0  0  0  0  0  0  0  0  0  0  0
    8.1041   -1.1910   22.9144 C   0  0  0  0  0  0  0  0  0  0  0  0
    8.7457    0.0870   22.4613 N   0  0  0  0  0  0  0  0  0  0  0  0
   10.1503    0.4096   22.8771 C   0  0  0  0  0  0  0  0  0  0  0  0
   10.7918    1.6876   22.4239 O   0  0  0  0  0  0  0  0  0  0  0  0
   10.9134   -0.5457   23.7460 C   0  0  0  0  0  0  0  0  0  0  0  0
   12.3181   -0.2231   24.1618 C   0  0  0  0  0  0  0  0  0  0  0  0
   13.0811   -1.1784   25.0307 C   0  0  0  0  0  0  0  0  0  0  0  0
   12.4396   -2.4563   25.4838 C   0  0  0  0  0  0  0  0  0  0  0  0
   13.2028   -3.4116   26.3528 Cl  0  0  0  0  0  0  0  0  0  0  0  0
   11.0350   -2.7790   25.0680 C   0  0  0  0  0  0  0  0  0  0  0  0
   10.2719   -1.8236   24.1991 C   0  0  0  0  0  0  0  0  0  0  0  0
    5.9996   -4.7493   24.0403 C   0  0  0  0  0  0  0  0  0  0  0  0
    5.6270   -5.4439   22.7642 C   0  0  0  0  0  0  0  0  0  0  0  0
    4.3723   -6.2630   22.6948 N   0  0  0  0  0  0  0  0  0  0  0  0
    3.4903   -6.3876   23.9016 C   0  0  0  0  0  0  0  0  0  0  0  0
    3.8629   -5.6930   25.1778 C   0  0  0  0  0  0  0  0  0  0  0  0
    2.9808   -5.8176   26.3847 C   0  0  0  0  0  0  0  0  0  0  0  0
    3.3535   -5.1230   27.6609 C   0  0  0  0  0  0  0  0  0  0  0  0
    4.6081   -4.3039   27.7302 C   0  0  0  0  0  0  0  0  0  0  0  0
    5.4901   -4.1793   26.5234 C   0  0  0  0  0  0  0  0  0  0  0  0
    5.1176   -4.8739   25.2472 C   0  0  0  0  0  0  0  0  0  0  0  0
    7.9825    1.0423   21.5923 C   0  0  0  0  0  0  0  0  0  0  0  0
    7.9233    2.4978   21.9499 C   0  0  0  0  0  0  0  0  0  0  0  0
    7.4979    2.9153   23.3263 N   0  0  0  0  0  0  0  0  0  0  0  0
    7.5029    4.3667   23.7050 C   0  0  0  0  0  0  0  0  0  0  0  0
    7.0775    4.7842   25.0815 C   0  0  0  0  0  0  0  0  0  0  0  0
    6.6471    3.7502   26.0793 O   0  0  0  0  0  0  0  0  0  0  0  0
    6.6420    2.2988   25.7007 C   0  0  0  0  0  0  0  0  0  0  0  0
    7.0674    1.8813   24.3242 C   0  0  0  0  0  0  0  0  0  0  0  0
    7.2086    3.1991   24.2624 H   0  0  0  0  0  0  0  0  0  0  0  0
  2  1  1  0  0  0
  2  3  1  0  0  0
  3  4  1  0  0  0
  4 19  1  0  0  0
 19 20  2  0  0  0
 20 21  1  0  0  0
 21 22  2  0  0  0
 22 23  1  0  0  0
 23 24  2  0  0  0
 24 25  1  0  0  0
 25 26  2  0  0  0
 26 27  1  0  0  0
 27 28  2  0  0  0
  4  5  1  0  0  0
  5  6  2  0  0  0
  5  7  1  0  0  0
  7  8  1  0  0  0
  8  9  1  0  0  0
  9 29  1  0  0  0
 29 30  1  0  0  0
 30 31  1  0  0  0
 31 32  1  0  0  0
 32 33  1  0  0  0
 33 34  1  0  0  0
 34 35  1  0  0  0
 35 36  1  0  0  0
  9 10  1  0  0  0
 10 11  2  0  0  0
 10 12  1  0  0  0
 12 13  2  0  0  0
 13 14  1  0  0  0
 14 15  2  0  0  0
 15 16  1  0  0  0
 15 17  1  0  0  0
 17 18  2  0  0  0
  7  2  1  0  0  0
 36 31  1  0  0  0
 18 12  1  0  0  0
 28 19  1  0  0  0
 18  7  1  0  0  0
 28 23  1  0  0  0
 31 37  1  0  0  0
M  CHG 1  31   1
M  END
> <minimizedAffinity>
-8.06830

> <CNNscore>
0.3255695701

> <CNNaffinity>
6.5325837135

> <CNN_VS>
2.1268105507

> <CNNaffinity_variance>
0.2118498087

$$$$



 37 42  0  0  0  0  0  0  0  0999 V2000
   10.7110   -1.0076   22.5673 C   0  0  0  0  0  0  0  0  0  0  0  0
    9.2132   -1.0154   22.4857 C   0  0  0  0  0  0  0  0  0  0  0  0
    8.7172   -0.4129   21.2047 C   0  0  0  0  0  0  0  0  0  0  0  0
    7.2182   -0.4662   21.2173 N   0  0  0  0  0  0  0  0  0  0  0  0
    6.7878   -1.1017   22.5061 C   0  0  0  0  0  0  0  0  0  0  0  0
    5.3729   -1.3535   22.9356 O   0  0  0  0  0  0  0  0  0  0  0  0
    8.0208   -1.4411   23.2900 C   0  0  0  0  0  0  0  0  0  0  0  0
    6.7399   -1.8127   23.9764 C   0  0  0  0  0  0  0  0  0  0  0  0
    6.7745   -2.4635   25.3275 N   0  0  0  0  0  0  0  0  0  0  0  0
    8.0899   -2.7428   25.9920 C   0  0  0  0  0  0  0  0  0  0  0  0
    8.1244   -3.3936   27.3430 O   0  0  0  0  0  0  0  0  0  0  0  0
    9.3708   -2.3712   25.3056 C   0  0  0  0  0  0  0  0  0  0  0  0
   10.6862   -2.6504   25.9702 C   0  0  0  0  0  0  0  0  0  0  0  0
   11.9671   -2.2788   25.2838 C   0  0  0  0  0  0  0  0  0  0  0  0
   11.9326   -1.6279   23.9328 C   0  0  0  0  0  0  0  0  0  0  0  0
   13.2136   -1.2563   23.2464 Cl  0  0  0  0  0  0  0  0  0  0  0  0
   10.6172   -1.3487   23.2682 C   0  0  0  0  0  0  0  0  0  0  0  0
    9.3363   -1.7203   23.9546 C   0  0  0  0  0  0  0  0  0  0  0  0
    6.3092    0.0290   20.1318 C   0  0  0  0  0  0  0  0  0  0  0  0
    6.3280   -0.6243   18.7817 C   0  0  0  0  0  0  0  0  0  0  0  0
    5.4189   -0.1291   17.6962 N   0  0  0  0  0  0  0  0  0  0  0  0
    4.4911    1.0194   17.9607 C   0  0  0  0  0  0  0  0  0  0  0  0
    4.4723    1.6727   19.3109 C   0  0  0  0  0  0  0  0  0  0  0  0
    3.5444    2.8212   19.5755 C   0  0  0  0  0  0  0  0  0  0  0  0
    3.5256    3.4745   20.9256 C   0  0  0  0  0  0  0  0  0  0  0  0
    4.4347    2.9793   22.0111 C   0  0  0  0  0  0  0  0  0  0  0  0
    5.3625    1.8308   21.7465 C   0  0  0  0  0  0  0  0  0  0  0  0
    5.3813    1.1775   20.3964 C   0  0  0  0  0  0  0  0  0  0  0  0
    5.4935   -2.8352   26.0139 C   0  0  0  0  0  0  0  0  0  0  0  0
    5.1407   -4.2794   26.2126 C   0  0  0  0  0  0  0  0  0  0  0  0
    4.4622   -5.0437   25.1147 N   0  0  0  0  0  0  0  0  0  0  0  0
    3.1072   -5.6444   25.3454 C   0  0  0  0  0  0  0  0  0  0  0  0
    2.4287   -6.4086   24.2475 C   0  0  0  0  0  0  0  0  0  0  0  0
    3.1052   -6.5722   22.9187 O   0  0  0  0  0  0  0  0  0  0  0  0
    4.4601   -5.9715   22.6879 C   0  0  0  0  0  0  0  0  0  0  0  0
    5.1387   -5.2072   23.7859 C   0  0  0  0  0  0  0  0  0  0  0  0
    4.0008   -5.5633   24.3680 H   0  0  0  0  0  0  0  0  0  0  0  0
  2  1  1  0  0  0
  2  3  1  0  0  0
  3  4  1  0  0  0
  4 19  1  0  0  0
 19 20  2  0  0  0
 20 21  1  0  0  0
 21 22  2  0  0  0
 22 23  1  0  0  0
 23 24  2  0  0  0
 24 25  1  0  0  0
 25 26  2  0  0  0
 26 27  1  0  0  0
 27 28  2  0  0  0
  4  5  1  0  0  0
  5  6  2  0  0  0
  5  7  1  0  0  0
  7  8  1  0  0  0
  8  9  1  0  0  0
  9 29  1  0  0  0
 29 30  1  0  0  0
 30 31  1  0  0  0
 31 32  1  0  0  0
 32 33  1  0  0  0
 33 34  1  0  0  0
 34 35  1  0  0  0
 35 36  1  0  0  0
  9 10  1  0  0  0
 10 11  2  0  0  0
 10 12  1  0  0  0
 12 13  2  0  0  0
 13 14  1  0  0  0
 14 15  2  0  0  0
 15 16  1  0  0  0
 15 17  1  0  0  0
 17 18  2  0  0  0
  7  2  1  0  0  0
 36 31  1  0  0  0
 18 12  1  0  0  0
 28 19  1  0  0  0
 18  7  1  0  0  0
 28 23  1  0  0  0
 31 37  1  0  0  0
M  CHG 1  31   1
M  END
> <minimizedAffinity>
-8.91043

> <CNNscore>
0.3022445142

> <CNNaffinity>
6.4926781654

> <CNN_VS>
1.9623763561

> <CNNaffinity_variance>
0.1334165633

$$$$
