


 40 44  0  0  0  0  0  0  0  0999 V2000
   10.7530   -0.0240   22.9197 N   0  0  0  0  0  0  0  0  0  0  0  0
    9.4865   -0.8107   22.7556 C   0  0  0  0  0  0  0  0  0  0  0  0
    9.2677   -2.0566   23.5618 C   0  0  0  0  0  0  0  0  0  0  0  0
    8.9104   -3.3154   24.2951 C   0  0  0  0  0  0  0  0  0  0  0  0
    9.3687   -4.0664   25.1331 O   0  0  0  0  0  0  0  0  0  0  0  0
    7.5579   -3.7594   23.8221 N   0  0  0  0  0  0  0  0  0  0  0  0
    7.0793   -2.7750   22.7965 C   0  0  0  0  0  0  0  0  0  0  0  0
    8.1360   -1.7226   22.6356 C   0  0  0  0  0  0  0  0  0  0  0  0
   10.3155   -2.5158   24.5320 C   0  0  0  0  0  0  0  0  0  0  0  0
   10.0967   -3.7616   25.3382 C   0  0  0  0  0  0  0  0  0  0  0  0
   11.1444   -4.2208   26.3084 C   0  0  0  0  0  0  0  0  0  0  0  0
   10.9257   -5.4667   27.1146 F   0  0  0  0  0  0  0  0  0  0  0  0
   12.4110   -3.4341   26.4724 C   0  0  0  0  0  0  0  0  0  0  0  0
   12.6298   -2.1882   25.6663 C   0  0  0  0  0  0  0  0  0  0  0  0
   11.5820   -1.7291   24.6961 C   0  0  0  0  0  0  0  0  0  0  0  0
   11.8008   -0.4831   23.8899 C   0  0  0  0  0  0  0  0  0  0  0  0
   13.0674    0.3036   24.0539 O   0  0  0  0  0  0  0  0  0  0  0  0
    6.8146   -4.9745   24.2922 C   0  0  0  0  0  0  0  0  0  0  0  0
    7.2043   -6.3331   23.7899 C   0  0  0  0  0  0  0  0  0  0  0  0
    6.4610   -7.5482   24.2601 N   0  0  0  0  0  0  0  0  0  0  0  0
    5.3280   -7.4047   25.2325 C   0  0  0  0  0  0  0  0  0  0  0  0
    4.9383   -6.0460   25.7348 C   0  0  0  0  0  0  0  0  0  0  0  0
    3.8052   -5.9025   26.7073 C   0  0  0  0  0  0  0  0  0  0  0  0
    3.4156   -4.5439   27.2096 C   0  0  0  0  0  0  0  0  0  0  0  0
    4.1589   -3.3288   26.7395 C   0  0  0  0  0  0  0  0  0  0  0  0
    5.2919   -3.4723   25.7670 C   0  0  0  0  0  0  0  0  0  0  0  0
    5.6816   -4.8309   25.2647 C   0  0  0  0  0  0  0  0  0  0  0  0
   10.9718    1.2219   22.1135 C   0  0  0  0  0  0  0  0  0  0  0  0
   10.8891    5.1053   22.9275 C   0  0  0  0  0  0  0  0  0  0  0  0
   11.3416    3.7781   22.3947 N   0  0  0  0  0  0  0  0  0  0  0  0
   10.5193    2.5491   22.6463 C   0  0  0  0  0  0  0  0  0  0  0  0
    9.2445    2.6472   23.4308 O   0  0  0  0  0  0  0  0  0  0  0  0
   12.1783    3.7137   21.8798 H   0  0  0  0  0  0  0  0  0  0  0  0
    8.0722   -0.5432   21.7109 C   0  0  0  0  0  0  0  0  0  0  0  0
    6.8374   -0.2947   20.8965 S   0  0  0  0  0  0  0  0  0  0  0  0
    7.4272    0.9896   20.3940 O   0  0  0  0  0  0  0  0  0  0  0  0
    6.2474   -1.5791   21.3990 O   0  0  0  0  0  0  0  0  0  0  0  0
    5.6025   -0.0462   20.0820 N   0  0  0  0  0  0  0  0  0  0  0  0
    4.4165    0.6288   20.7048 C   0  0  0  0  0  0  0  0  0  0  0  0
    5.5536   -0.4727   18.6448 C   0  0  0  0  0  0  0  0  0  0  0  0
 29 30  1  0  0  0
 30 31  1  0  0  0
 31 32  2  0  0  0
 31 28  1  0  0  0
 28  1  1  0  0  0
  1  2  1  0  0  0
  3  2  1  0  0  0
  3  4  1  0  0  0
  4  5  2  0  0  0
  4  6  1  0  0  0
  6 18  1  0  0  0
 18 19  2  0  0  0
 19 20  1  0  0  0
 20 21  2  0  0  0
 21 22  1  0  0  0
 22 23  2  0  0  0
 23 24  1  0  0  0
 24 25  2  0  0  0
 25 26  1  0  0  0
 26 27  2  0  0  0
  6  7  1  0  0  0
  7  8  1  0  0  0
  8 34  1  0  0  0
 34 35  1  0  0  0
 35 36  2  0  0  0
 35 37  2  0  0  0
 35 38  1  0  0  0
 38 39  1  0  0  0
 38 40  1  0  0  0
  3  9  1  0  0  0
  9 10  2  0  0  0
 10 11  1  0  0  0
 11 12  1  0  0  0
 11 13  2  0  0  0
 13 14  1  0  0  0
 14 15  2  0  0  0
 15 16  1  0  0  0
 16 17  2  0  0  0
 16  1  1  0  0  0
  8  3  1  0  0  0
 15  9  1  0  0  0
 27 18  1  0  0  0
 27 22  1  0  0  0
 30 33  1  0  0  0
M  END
> <minimizedAffinity>
-8.89855

> <CNNscore>
0.4732182920

> <CNNaffinity>
7.0115089417

> <CNN_VS>
3.3179743290

> <CNNaffinity_variance>
0.2362287343

$$$$



 40 44  0  0  0  0  0  0  0  0999 V2000
   10.3293    0.0849   23.0483 N   0  0  0  0  0  0  0  0  0  0  0  0
    9.0741   -0.7274   22.9271 C   0  0  0  0  0  0  0  0  0  0  0  0
    8.9172   -1.9887   23.7236 C   0  0  0  0  0  0  0  0  0  0  0  0
    8.6190   -3.2650   24.4531 C   0  0  0  0  0  0  0  0  0  0  0  0
    9.1291   -4.0171   25.2596 O   0  0  0  0  0  0  0  0  0  0  0  0
    7.2573   -3.7324   24.0320 N   0  0  0  0  0  0  0  0  0  0  0  0
    6.7138   -2.7449   23.0423 C   0  0  0  0  0  0  0  0  0  0  0  0
    7.7397   -1.6672   22.8517 C   0  0  0  0  0  0  0  0  0  0  0  0
   10.0154   -2.4378   24.6414 C   0  0  0  0  0  0  0  0  0  0  0  0
    9.8585   -3.6991   25.4379 C   0  0  0  0  0  0  0  0  0  0  0  0
   10.9567   -4.1481   26.3555 C   0  0  0  0  0  0  0  0  0  0  0  0
   10.7998   -5.4094   27.1521 F   0  0  0  0  0  0  0  0  0  0  0  0
   12.2119   -3.3358   26.4767 C   0  0  0  0  0  0  0  0  0  0  0  0
   12.3689   -2.0745   25.6802 C   0  0  0  0  0  0  0  0  0  0  0  0
   11.2706   -1.6255   24.7626 C   0  0  0  0  0  0  0  0  0  0  0  0
   11.4276   -0.3641   23.9660 C   0  0  0  0  0  0  0  0  0  0  0  0
   12.6828    0.4482   24.0872 O   0  0  0  0  0  0  0  0  0  0  0  0
    6.5613   -4.9700   24.5157 C   0  0  0  0  0  0  0  0  0  0  0  0
    6.9266   -6.3079   23.9442 C   0  0  0  0  0  0  0  0  0  0  0  0
    6.2306   -7.5454   24.4279 N   0  0  0  0  0  0  0  0  0  0  0  0
    5.1693   -7.4451   25.4831 C   0  0  0  0  0  0  0  0  0  0  0  0
    4.8040   -6.1072   26.0546 C   0  0  0  0  0  0  0  0  0  0  0  0
    3.7426   -6.0069   27.1099 C   0  0  0  0  0  0  0  0  0  0  0  0
    3.3774   -4.6690   27.6814 C   0  0  0  0  0  0  0  0  0  0  0  0
    4.0734   -3.4314   27.1977 C   0  0  0  0  0  0  0  0  0  0  0  0
    5.1347   -3.5317   26.1424 C   0  0  0  0  0  0  0  0  0  0  0  0
    5.5000   -4.8696   25.5709 C   0  0  0  0  0  0  0  0  0  0  0  0
   10.4862    1.3463   22.2518 C   0  0  0  0  0  0  0  0  0  0  0  0
    8.1803    4.3773   23.3677 C   0  0  0  0  0  0  0  0  0  0  0  0
    9.2759    3.3529   23.3737 N   0  0  0  0  0  0  0  0  0  0  0  0
    9.3905    2.3707   22.2458 C   0  0  0  0  0  0  0  0  0  0  0  0
    8.4094    2.4129   21.1119 O   0  0  0  0  0  0  0  0  0  0  0  0
    9.9199    3.3251   24.1179 H   0  0  0  0  0  0  0  0  0  0  0  0
    7.6107   -0.4771   21.9479 C   0  0  0  0  0  0  0  0  0  0  0  0
    6.2520    0.0299   21.5646 S   0  0  0  0  0  0  0  0  0  0  0  0
    6.1416    0.7326   22.8852 O   0  0  0  0  0  0  0  0  0  0  0  0
    6.3624   -0.6728   20.2439 O   0  0  0  0  0  0  0  0  0  0  0  0
    4.8933    0.5368   21.1813 N   0  0  0  0  0  0  0  0  0  0  0  0
    4.5217    0.6657   19.7337 C   0  0  0  0  0  0  0  0  0  0  0  0
    3.9062    0.9150   22.2455 C   0  0  0  0  0  0  0  0  0  0  0  0
 29 30  1  0  0  0
 30 31  1  0  0  0
 31 32  2  0  0  0
 31 28  1  0  0  0
 28  1  1  0  0  0
  1  2  1  0  0  0
  3  2  1  0  0  0
  3  4  1  0  0  0
  4  5  2  0  0  0
  4  6  1  0  0  0
  6 18  1  0  0  0
 18 19  2  0  0  0
 19 20  1  0  0  0
 20 21  2  0  0  0
 21 22  1  0  0  0
 22 23  2  0  0  0
 23 24  1  0  0  0
 24 25  2  0  0  0
 25 26  1  0  0  0
 26 27  2  0  0  0
  6  7  1  0  0  0
  7  8  1  0  0  0
  8 34  1  0  0  0
 34 35  1  0  0  0
 35 36  2  0  0  0
 35 37  2  0  0  0
 35 38  1  0  0  0
 38 39  1  0  0  0
 38 40  1  0  0  0
  3  9  1  0  0  0
  9 10  2  0  0  0
 10 11  1  0  0  0
 11 12  1  0  0  0
 11 13  2  0  0  0
 13 14  1  0  0  0
 14 15  2  0  0  0
 15 16  1  0  0  0
 16 17  2  0  0  0
 16  1  1  0  0  0
  8  3  1  0  0  0
 15  9  1  0  0  0
 27 18  1  0  0  0
 27 22  1  0  0  0
 30 33  1  0  0  0
M  END
> <minimizedAffinity>
-8.43995

> <CNNscore>
0.4171127677

> <CNNaffinity>
6.9347290993

> <CNN_VS>
2.8925640583

> <CNNaffinity_variance>
0.2056885064

$$$$



 40 44  0  0  0  0  0  0  0  0999 V2000
    5.2330    0.9870   21.6624 N   0  0  0  0  0  0  0  0  0  0  0  0
    6.1276   -0.1647   22.0133 C   0  0  0  0  0  0  0  0  0  0  0  0
    7.5236    0.0909   22.4991 C   0  0  0  0  0  0  0  0  0  0  0  0
    8.9356    0.1906   22.9952 C   0  0  0  0  0  0  0  0  0  0  0  0
    9.7702    1.0314   23.2650 O   0  0  0  0  0  0  0  0  0  0  0  0
    9.4480   -1.2015   23.2182 N   0  0  0  0  0  0  0  0  0  0  0  0
    8.3526   -2.1615   22.8598 C   0  0  0  0  0  0  0  0  0  0  0  0
    7.1633   -1.3628   22.4154 C   0  0  0  0  0  0  0  0  0  0  0  0
    8.0249    1.4982   22.6340 C   0  0  0  0  0  0  0  0  0  0  0  0
    9.4208    1.7538   23.1198 C   0  0  0  0  0  0  0  0  0  0  0  0
    9.9221    3.1610   23.2547 C   0  0  0  0  0  0  0  0  0  0  0  0
   11.3181    3.4166   23.7405 F   0  0  0  0  0  0  0  0  0  0  0  0
    9.0274    4.3128   22.9038 C   0  0  0  0  0  0  0  0  0  0  0  0
    7.6315    4.0572   22.4180 C   0  0  0  0  0  0  0  0  0  0  0  0
    7.1302    2.6499   22.2831 C   0  0  0  0  0  0  0  0  0  0  0  0
    5.7342    2.3943   21.7973 C   0  0  0  0  0  0  0  0  0  0  0  0
    4.8396    3.5460   21.4465 O   0  0  0  0  0  0  0  0  0  0  0  0
   10.8157   -1.5689   23.7127 C   0  0  0  0  0  0  0  0  0  0  0  0
   12.0318   -1.1176   22.9595 C   0  0  0  0  0  0  0  0  0  0  0  0
   13.3995   -1.4851   23.4540 N   0  0  0  0  0  0  0  0  0  0  0  0
   13.5509   -2.3037   24.7017 C   0  0  0  0  0  0  0  0  0  0  0  0
   12.3348   -2.7550   25.4549 C   0  0  0  0  0  0  0  0  0  0  0  0
   12.4863   -3.5737   26.7027 C   0  0  0  0  0  0  0  0  0  0  0  0
   11.2701   -4.0249   27.4558 C   0  0  0  0  0  0  0  0  0  0  0  0
    9.9024   -3.6575   26.9613 C   0  0  0  0  0  0  0  0  0  0  0  0
    9.7509   -2.8388   25.7136 C   0  0  0  0  0  0  0  0  0  0  0  0
   10.9671   -2.3876   24.9604 C   0  0  0  0  0  0  0  0  0  0  0  0
    3.8370    0.7314   21.1767 C   0  0  0  0  0  0  0  0  0  0  0  0
    1.4831    3.3919   19.4071 C   0  0  0  0  0  0  0  0  0  0  0  0
    2.0834    2.5102   20.4617 N   0  0  0  0  0  0  0  0  0  0  0  0
    3.2366    1.6131   20.1220 C   0  0  0  0  0  0  0  0  0  0  0  0
    3.7896    1.5977   18.7277 O   0  0  0  0  0  0  0  0  0  0  0  0
    1.7206    2.5203   21.3768 H   0  0  0  0  0  0  0  0  0  0  0  0
    5.8450   -1.9200   21.9662 C   0  0  0  0  0  0  0  0  0  0  0  0
    5.5207   -3.3648   22.2054 S   0  0  0  0  0  0  0  0  0  0  0  0
    5.3268   -3.5654   20.7316 O   0  0  0  0  0  0  0  0  0  0  0  0
    5.7147   -3.1643   23.6793 O   0  0  0  0  0  0  0  0  0  0  0  0
    5.1964   -4.8096   22.4447 N   0  0  0  0  0  0  0  0  0  0  0  0
    5.4940   -5.8304   21.3866 C   0  0  0  0  0  0  0  0  0  0  0  0
    4.5745   -5.2338   23.7421 C   0  0  0  0  0  0  0  0  0  0  0  0
 29 30  1  0  0  0
 30 31  1  0  0  0
 31 32  2  0  0  0
 31 28  1  0  0  0
 28  1  1  0  0  0
  1  2  1  0  0  0
  3  2  1  0  0  0
  3  4  1  0  0  0
  4  5  2  0  0  0
  4  6  1  0  0  0
  6 18  1  0  0  0
 18 19  2  0  0  0
 19 20  1  0  0  0
 20 21  2  0  0  0
 21 22  1  0  0  0
 22 23  2  0  0  0
 23 24  1  0  0  0
 24 25  2  0  0  0
 25 26  1  0  0  0
 26 27  2  0  0  0
  6  7  1  0  0  0
  7  8  1  0  0  0
  8 34  1  0  0  0
 34 35  1  0  0  0
 35 36  2  0  0  0
 35 37  2  0  0  0
 35 38  1  0  0  0
 38 39  1  0  0  0
 38 40  1  0  0  0
  3  9  1  0  0  0
  9 10  2  0  0  0
 10 11  1  0  0  0
 11 12  1  0  0  0
 11 13  2  0  0  0
 13 14  1  0  0  0
 14 15  2  0  0  0
 15 16  1  0  0  0
 16 17  2  0  0  0
 16  1  1  0  0  0
  8  3  1  0  0  0
 15  9  1  0  0  0
 27 18  1  0  0  0
 27 22  1  0  0  0
 30 33  1  0  0  0
M  END
> <minimizedAffinity>
-7.31995

> <CNNscore>
0.3963916302

> <CNNaffinity>
6.8988647461

> <CNN_VS>
2.7346522808

> <CNNaffinity_variance>
0.1141611785

$$$$



 40 44  0  0  0  0  0  0  0  0999 V2000
    9.6593    0.8506   23.0710 N   0  0  0  0  0  0  0  0  0  0  0  0
    8.4864   -0.0746   22.9356 C   0  0  0  0  0  0  0  0  0  0  0  0
    8.5199   -1.4276   23.5824 C   0  0  0  0  0  0  0  0  0  0  0  0
    8.4096   -2.8031   24.1703 C   0  0  0  0  0  0  0  0  0  0  0  0
    9.0542   -3.5816   24.8447 O   0  0  0  0  0  0  0  0  0  0  0  0
    7.0730   -3.3655   23.7866 N   0  0  0  0  0  0  0  0  0  0  0  0
    6.3572   -2.3374   22.9615 C   0  0  0  0  0  0  0  0  0  0  0  0
    7.2514   -1.1397   22.8353 C   0  0  0  0  0  0  0  0  0  0  0  0
    9.7262   -1.8553   24.3647 C   0  0  0  0  0  0  0  0  0  0  0  0
    9.7597   -3.2082   25.0115 C   0  0  0  0  0  0  0  0  0  0  0  0
   10.9660   -3.6358   25.7938 C   0  0  0  0  0  0  0  0  0  0  0  0
   10.9995   -4.9888   26.4406 F   0  0  0  0  0  0  0  0  0  0  0  0
   12.1388   -2.7106   25.9292 C   0  0  0  0  0  0  0  0  0  0  0  0
   12.1053   -1.3576   25.2824 C   0  0  0  0  0  0  0  0  0  0  0  0
   10.8991   -0.9300   24.5001 C   0  0  0  0  0  0  0  0  0  0  0  0
   10.8656    0.4230   23.8532 C   0  0  0  0  0  0  0  0  0  0  0  0
   12.0384    1.3483   23.9886 O   0  0  0  0  0  0  0  0  0  0  0  0
    6.5449   -4.7183   24.1620 C   0  0  0  0  0  0  0  0  0  0  0  0
    7.1325   -5.9513   23.5420 C   0  0  0  0  0  0  0  0  0  0  0  0
    6.6044   -7.3042   23.9174 N   0  0  0  0  0  0  0  0  0  0  0  0
    5.4887   -7.4239   24.9129 C   0  0  0  0  0  0  0  0  0  0  0  0
    4.9011   -6.1909   25.5329 C   0  0  0  0  0  0  0  0  0  0  0  0
    3.7854   -6.3107   26.5283 C   0  0  0  0  0  0  0  0  0  0  0  0
    3.1979   -5.0776   27.1483 C   0  0  0  0  0  0  0  0  0  0  0  0
    3.7259   -3.7248   26.7728 C   0  0  0  0  0  0  0  0  0  0  0  0
    4.8416   -3.6050   25.7774 C   0  0  0  0  0  0  0  0  0  0  0  0
    5.4292   -4.8381   25.1574 C   0  0  0  0  0  0  0  0  0  0  0  0
    9.6258    2.2036   22.4241 C   0  0  0  0  0  0  0  0  0  0  0  0
    8.6149    5.9011   23.4522 C   0  0  0  0  0  0  0  0  0  0  0  0
    9.3044    4.7589   22.7667 N   0  0  0  0  0  0  0  0  0  0  0  0
    8.9362    3.3458   23.1097 C   0  0  0  0  0  0  0  0  0  0  0  0
    7.8785    3.0749   24.1382 O   0  0  0  0  0  0  0  0  0  0  0  0
    9.9986    4.9367   22.0916 H   0  0  0  0  0  0  0  0  0  0  0  0
    6.9331    0.1239   22.0924 C   0  0  0  0  0  0  0  0  0  0  0  0
    6.1412    0.0666   20.8198 S   0  0  0  0  0  0  0  0  0  0  0  0
    4.8851   -0.1483   21.6110 O   0  0  0  0  0  0  0  0  0  0  0  0
    7.3974    0.2815   20.0286 O   0  0  0  0  0  0  0  0  0  0  0  0
    5.3494    0.0093   19.5472 N   0  0  0  0  0  0  0  0  0  0  0  0
    4.4810    1.1666   19.1512 C   0  0  0  0  0  0  0  0  0  0  0  0
    5.4259   -1.2053   18.6703 C   0  0  0  0  0  0  0  0  0  0  0  0
 29 30  1  0  0  0
 30 31  1  0  0  0
 31 32  2  0  0  0
 31 28  1  0  0  0
 28  1  1  0  0  0
  1  2  1  0  0  0
  3  2  1  0  0  0
  3  4  1  0  0  0
  4  5  2  0  0  0
  4  6  1  0  0  0
  6 18  1  0  0  0
 18 19  2  0  0  0
 19 20  1  0  0  0
 20 21  2  0  0  0
 21 22  1  0  0  0
 22 23  2  0  0  0
 23 24  1  0  0  0
 24 25  2  0  0  0
 25 26  1  0  0  0
 26 27  2  0  0  0
  6  7  1  0  0  0
  7  8  1  0  0  0
  8 34  1  0  0  0
 34 35  1  0  0  0
 35 36  2  0  0  0
 35 37  2  0  0  0
 35 38  1  0  0  0
 38 39  1  0  0  0
 38 40  1  0  0  0
  3  9  1  0  0  0
  9 10  2  0  0  0
 10 11  1  0  0  0
 11 12  1  0  0  0
 11 13  2  0  0  0
 13 14  1  0  0  0
 14 15  2  0  0  0
 15 16  1  0  0  0
 16 17  2  0  0  0
 16  1  1  0  0  0
  8  3  1  0  0  0
 15  9  1  0  0  0
 27 18  1  0  0  0
 27 22  1  0  0  0
 30 33  1  0  0  0
M  END
> <minimizedAffinity>
-8.61970

> <CNNscore>
0.3835066259

> <CNNaffinity>
6.9662170410

> <CNN_VS>
2.6715903282

> <CNNaffinity_variance>
0.1246046871

$$$$



 40 44  0  0  0  0  0  0  0  0999 V2000
    4.9980    4.0355   23.2648 N   0  0  0  0  0  0  0  0  0  0  0  0
    5.7456    2.7530   23.0498 C   0  0  0  0  0  0  0  0  0  0  0  0
    6.2853    1.9934   24.2252 C   0  0  0  0  0  0  0  0  0  0  0  0
    6.8797    1.1289   25.2972 C   0  0  0  0  0  0  0  0  0  0  0  0
    6.9923    1.0908   26.5065 O   0  0  0  0  0  0  0  0  0  0  0  0
    7.5316   -0.0486   24.6350 N   0  0  0  0  0  0  0  0  0  0  0  0
    7.3401    0.0881   23.1535 C   0  0  0  0  0  0  0  0  0  0  0  0
    6.5698    1.3501   22.9003 C   0  0  0  0  0  0  0  0  0  0  0  0
    6.0774    2.5162   25.6157 C   0  0  0  0  0  0  0  0  0  0  0  0
    6.6171    1.7565   26.7911 C   0  0  0  0  0  0  0  0  0  0  0  0
    6.4091    2.2794   28.1815 C   0  0  0  0  0  0  0  0  0  0  0  0
    6.9488    1.5197   29.3570 F   0  0  0  0  0  0  0  0  0  0  0  0
    5.6614    3.5619   28.3966 C   0  0  0  0  0  0  0  0  0  0  0  0
    5.1218    4.3215   27.2212 C   0  0  0  0  0  0  0  0  0  0  0  0
    5.3297    3.7987   25.8307 C   0  0  0  0  0  0  0  0  0  0  0  0
    4.7900    4.5583   24.6552 C   0  0  0  0  0  0  0  0  0  0  0  0
    4.0424    5.8408   24.8703 O   0  0  0  0  0  0  0  0  0  0  0  0
    8.2490   -1.1665   25.3318 C   0  0  0  0  0  0  0  0  0  0  0  0
    7.4705   -2.1971   26.0944 C   0  0  0  0  0  0  0  0  0  0  0  0
    8.1879   -3.3150   26.7913 N   0  0  0  0  0  0  0  0  0  0  0  0
    9.6839   -3.4023   26.7254 C   0  0  0  0  0  0  0  0  0  0  0  0
   10.4625   -2.3717   25.9627 C   0  0  0  0  0  0  0  0  0  0  0  0
   11.9585   -2.4590   25.8969 C   0  0  0  0  0  0  0  0  0  0  0  0
   12.7370   -1.4283   25.1342 C   0  0  0  0  0  0  0  0  0  0  0  0
   12.0196   -0.3104   24.4374 C   0  0  0  0  0  0  0  0  0  0  0  0
   10.5236   -0.2231   24.5033 C   0  0  0  0  0  0  0  0  0  0  0  0
    9.7450   -1.2538   25.2659 C   0  0  0  0  0  0  0  0  0  0  0  0
    4.4583    4.7952   22.0893 C   0  0  0  0  0  0  0  0  0  0  0  0
    2.1201    3.1334   19.3467 C   0  0  0  0  0  0  0  0  0  0  0  0
    3.3498    3.6208   20.0541 N   0  0  0  0  0  0  0  0  0  0  0  0
    3.2286    4.3079   21.3819 C   0  0  0  0  0  0  0  0  0  0  0  0
    1.8776    4.5077   22.0024 O   0  0  0  0  0  0  0  0  0  0  0  0
    4.2365    3.4896   19.6469 H   0  0  0  0  0  0  0  0  0  0  0  0
    6.1566    1.8765   21.5578 C   0  0  0  0  0  0  0  0  0  0  0  0
    5.8032    0.9234   20.4549 S   0  0  0  0  0  0  0  0  0  0  0  0
    4.3968    0.8477   20.9708 O   0  0  0  0  0  0  0  0  0  0  0  0
    7.2097    0.9990   19.9388 O   0  0  0  0  0  0  0  0  0  0  0  0
    5.4499   -0.0298   19.3518 N   0  0  0  0  0  0  0  0  0  0  0  0
    5.3898   -1.5036   19.6246 C   0  0  0  0  0  0  0  0  0  0  0  0
    5.1566    0.4908   17.9760 C   0  0  0  0  0  0  0  0  0  0  0  0
 29 30  1  0  0  0
 30 31  1  0  0  0
 31 32  2  0  0  0
 31 28  1  0  0  0
 28  1  1  0  0  0
  1  2  1  0  0  0
  3  2  1  0  0  0
  3  4  1  0  0  0
  4  5  2  0  0  0
  4  6  1  0  0  0
  6 18  1  0  0  0
 18 19  2  0  0  0
 19 20  1  0  0  0
 20 21  2  0  0  0
 21 22  1  0  0  0
 22 23  2  0  0  0
 23 24  1  0  0  0
 24 25  2  0  0  0
 25 26  1  0  0  0
 26 27  2  0  0  0
  6  7  1  0  0  0
  7  8  1  0  0  0
  8 34  1  0  0  0
 34 35  1  0  0  0
 35 36  2  0  0  0
 35 37  2  0  0  0
 35 38  1  0  0  0
 38 39  1  0  0  0
 38 40  1  0  0  0
  3  9  1  0  0  0
  9 10  2  0  0  0
 10 11  1  0  0  0
 11 12  1  0  0  0
 11 13  2  0  0  0
 13 14  1  0  0  0
 14 15  2  0  0  0
 15 16  1  0  0  0
 16 17  2  0  0  0
 16  1  1  0  0  0
  8  3  1  0  0  0
 15  9  1  0  0  0
 27 18  1  0  0  0
 27 22  1  0  0  0
 30 33  1  0  0  0
M  END
> <minimizedAffinity>
-7.28693

> <CNNscore>
0.2825619578

> <CNNaffinity>
6.3787894249

> <CNN_VS>
1.8024032116

> <CNNaffinity_variance>
0.0166023541

$$$$



 40 44  0  0  0  0  0  0  0  0999 V2000
    6.8487   -3.3295   23.0204 N   0  0  0  0  0  0  0  0  0  0  0  0
    7.0916   -1.9456   22.4953 C   0  0  0  0  0  0  0  0  0  0  0  0
    8.2725   -1.1567   22.9780 C   0  0  0  0  0  0  0  0  0  0  0  0
    9.4050   -0.2527   23.3655 C   0  0  0  0  0  0  0  0  0  0  0  0
   10.3799   -0.2404   24.0906 O   0  0  0  0  0  0  0  0  0  0  0  0
    9.2579    1.0289   22.6001 N   0  0  0  0  0  0  0  0  0  0  0  0
    8.0344    0.9170   21.7395 C   0  0  0  0  0  0  0  0  0  0  0  0
    7.4255   -0.4338   21.9731 C   0  0  0  0  0  0  0  0  0  0  0  0
    9.2107   -1.7518   23.9859 C   0  0  0  0  0  0  0  0  0  0  0  0
   10.3916   -0.9629   24.4686 C   0  0  0  0  0  0  0  0  0  0  0  0
   11.3297   -1.5579   25.4765 C   0  0  0  0  0  0  0  0  0  0  0  0
   12.5107   -0.7691   25.9592 F   0  0  0  0  0  0  0  0  0  0  0  0
   11.0869   -2.9419   26.0016 C   0  0  0  0  0  0  0  0  0  0  0  0
    9.9060   -3.7307   25.5189 C   0  0  0  0  0  0  0  0  0  0  0  0
    8.9679   -3.1357   24.5111 C   0  0  0  0  0  0  0  0  0  0  0  0
    7.7868   -3.9246   24.0283 C   0  0  0  0  0  0  0  0  0  0  0  0
    7.5440   -5.3085   24.5535 O   0  0  0  0  0  0  0  0  0  0  0  0
   10.1735    2.2143   22.6811 C   0  0  0  0  0  0  0  0  0  0  0  0
   11.6563    2.0267   22.5546 C   0  0  0  0  0  0  0  0  0  0  0  0
   12.5719    3.2120   22.6356 N   0  0  0  0  0  0  0  0  0  0  0  0
   12.0047    4.5850   22.8432 C   0  0  0  0  0  0  0  0  0  0  0  0
   10.5218    4.7726   22.9697 C   0  0  0  0  0  0  0  0  0  0  0  0
    9.9546    6.1457   23.1772 C   0  0  0  0  0  0  0  0  0  0  0  0
    8.4717    6.3332   23.3037 C   0  0  0  0  0  0  0  0  0  0  0  0
    7.5561    5.1479   23.2227 C   0  0  0  0  0  0  0  0  0  0  0  0
    8.1234    3.7749   23.0152 C   0  0  0  0  0  0  0  0  0  0  0  0
    9.6062    3.5873   22.8887 C   0  0  0  0  0  0  0  0  0  0  0  0
    5.6677   -4.1184   22.5377 C   0  0  0  0  0  0  0  0  0  0  0  0
    6.1553   -7.5492   24.4721 C   0  0  0  0  0  0  0  0  0  0  0  0
    6.4431   -6.1973   23.8893 N   0  0  0  0  0  0  0  0  0  0  0  0
    5.3799   -5.4703   23.1205 C   0  0  0  0  0  0  0  0  0  0  0  0
    4.0290   -6.0951   22.9344 O   0  0  0  0  0  0  0  0  0  0  0  0
    7.3297   -5.7873   24.0114 H   0  0  0  0  0  0  0  0  0  0  0  0
    6.1868   -0.9679   21.3168 C   0  0  0  0  0  0  0  0  0  0  0  0
    5.4624   -0.1407   20.2967 S   0  0  0  0  0  0  0  0  0  0  0  0
    6.4719   -0.5352   19.2598 O   0  0  0  0  0  0  0  0  0  0  0  0
    4.4527    0.2538   21.3336 O   0  0  0  0  0  0  0  0  0  0  0  0
    4.7378    0.6865   19.2765 N   0  0  0  0  0  0  0  0  0  0  0  0
    3.6409    1.6153   19.7058 C   0  0  0  0  0  0  0  0  0  0  0  0
    5.1101    0.5849   17.8270 C   0  0  0  0  0  0  0  0  0  0  0  0
 29 30  1  0  0  0
 30 31  1  0  0  0
 31 32  2  0  0  0
 31 28  1  0  0  0
 28  1  1  0  0  0
  1  2  1  0  0  0
  3  2  1  0  0  0
  3  4  1  0  0  0
  4  5  2  0  0  0
  4  6  1  0  0  0
  6 18  1  0  0  0
 18 19  2  0  0  0
 19 20  1  0  0  0
 20 21  2  0  0  0
 21 22  1  0  0  0
 22 23  2  0  0  0
 23 24  1  0  0  0
 24 25  2  0  0  0
 25 26  1  0  0  0
 26 27  2  0  0  0
  6  7  1  0  0  0
  7  8  1  0  0  0
  8 34  1  0  0  0
 34 35  1  0  0  0
 35 36  2  0  0  0
 35 37  2  0  0  0
 35 38  1  0  0  0
 38 39  1  0  0  0
 38 40  1  0  0  0
  3  9  1  0  0  0
  9 10  2  0  0  0
 10 11  1  0  0  0
 11 12  1  0  0  0
 11 13  2  0  0  0
 13 14  1  0  0  0
 14 15  2  0  0  0
 15 16  1  0  0  0
 16 17  2  0  0  0
 16  1  1  0  0  0
  8  3  1  0  0  0
 15  9  1  0  0  0
 27 18  1  0  0  0
 27 22  1  0  0  0
 30 33  1  0  0  0
M  END
> <minimizedAffinity>
-8.94803

> <CNNscore>
0.2807664275

> <CNNaffinity>
6.7419600487

> <CNN_VS>
1.8929160833

> <CNNaffinity_variance>
0.2482492179

$$$$



 40 44  0  0  0  0  0  0  0  0999 V2000
   10.5531    0.0618   23.2352 N   0  0  0  0  0  0  0  0  0  0  0  0
    9.1486   -0.4396   23.3962 C   0  0  0  0  0  0  0  0  0  0  0  0
    8.8551   -1.5525   24.3582 C   0  0  0  0  0  0  0  0  0  0  0  0
    8.4115   -2.6526   25.2762 C   0  0  0  0  0  0  0  0  0  0  0  0
    8.8723   -3.4287   26.0897 O   0  0  0  0  0  0  0  0  0  0  0  0
    6.9298   -2.8219   25.1148 N   0  0  0  0  0  0  0  0  0  0  0  0
    6.4577   -1.8264   24.0969 C   0  0  0  0  0  0  0  0  0  0  0  0
    7.6476   -1.0418   23.6293 C   0  0  0  0  0  0  0  0  0  0  0  0
    9.9662   -2.1639   25.1592 C   0  0  0  0  0  0  0  0  0  0  0  0
    9.6728   -3.2768   26.1212 C   0  0  0  0  0  0  0  0  0  0  0  0
   10.7839   -3.8882   26.9222 C   0  0  0  0  0  0  0  0  0  0  0  0
   10.4905   -5.0011   27.8842 F   0  0  0  0  0  0  0  0  0  0  0  0
   12.1884   -3.3867   26.7612 C   0  0  0  0  0  0  0  0  0  0  0  0
   12.4818   -2.2739   25.7993 C   0  0  0  0  0  0  0  0  0  0  0  0
   11.3707   -1.6625   24.9983 C   0  0  0  0  0  0  0  0  0  0  0  0
   11.6641   -0.5496   24.0362 C   0  0  0  0  0  0  0  0  0  0  0  0
   13.0686   -0.0481   23.8753 O   0  0  0  0  0  0  0  0  0  0  0  0
    6.0711   -3.8127   25.8433 C   0  0  0  0  0  0  0  0  0  0  0  0
    5.6664   -5.0914   25.1715 C   0  0  0  0  0  0  0  0  0  0  0  0
    4.8077   -6.0823   25.9001 N   0  0  0  0  0  0  0  0  0  0  0  0
    4.3535   -5.7944   27.3004 C   0  0  0  0  0  0  0  0  0  0  0  0
    4.7582   -4.5157   27.9722 C   0  0  0  0  0  0  0  0  0  0  0  0
    4.3040   -4.2279   29.3725 C   0  0  0  0  0  0  0  0  0  0  0  0
    4.7087   -2.9492   30.0442 C   0  0  0  0  0  0  0  0  0  0  0  0
    5.5674   -1.9583   29.3157 C   0  0  0  0  0  0  0  0  0  0  0  0
    6.0216   -2.2462   27.9154 C   0  0  0  0  0  0  0  0  0  0  0  0
    5.6169   -3.5249   27.2436 C   0  0  0  0  0  0  0  0  0  0  0  0
   10.8465    1.1747   22.2732 C   0  0  0  0  0  0  0  0  0  0  0  0
   11.5681    5.0136   22.9750 C   0  0  0  0  0  0  0  0  0  0  0  0
   11.7681    3.5874   22.5555 N   0  0  0  0  0  0  0  0  0  0  0  0
   10.6465    2.6009   22.6927 C   0  0  0  0  0  0  0  0  0  0  0  0
    9.3247    3.0407   23.2493 O   0  0  0  0  0  0  0  0  0  0  0  0
   12.6355    3.2988   22.1902 H   0  0  0  0  0  0  0  0  0  0  0  0
    7.6327    0.0599   22.6115 C   0  0  0  0  0  0  0  0  0  0  0  0
    6.4511    0.2252   21.7024 S   0  0  0  0  0  0  0  0  0  0  0  0
    5.8716    1.2422   22.6404 O   0  0  0  0  0  0  0  0  0  0  0  0
    7.0306   -0.7919   20.7644 O   0  0  0  0  0  0  0  0  0  0  0  0
    5.2695    0.3905   20.7933 N   0  0  0  0  0  0  0  0  0  0  0  0
    4.1625    1.3318   21.1656 C   0  0  0  0  0  0  0  0  0  0  0  0
    5.1949   -0.3856   19.5118 C   0  0  0  0  0  0  0  0  0  0  0  0
 29 30  1  0  0  0
 30 31  1  0  0  0
 31 32  2  0  0  0
 31 28  1  0  0  0
 28  1  1  0  0  0
  1  2  1  0  0  0
  3  2  1  0  0  0
  3  4  1  0  0  0
  4  5  2  0  0  0
  4  6  1  0  0  0
  6 18  1  0  0  0
 18 19  2  0  0  0
 19 20  1  0  0  0
 20 21  2  0  0  0
 21 22  1  0  0  0
 22 23  2  0  0  0
 23 24  1  0  0  0
 24 25  2  0  0  0
 25 26  1  0  0  0
 26 27  2  0  0  0
  6  7  1  0  0  0
  7  8  1  0  0  0
  8 34  1  0  0  0
 34 35  1  0  0  0
 35 36  2  0  0  0
 35 37  2  0  0  0
 35 38  1  0  0  0
 38 39  1  0  0  0
 38 40  1  0  0  0
  3  9  1  0  0  0
  9 10  2  0  0  0
 10 11  1  0  0  0
 11 12  1  0  0  0
 11 13  2  0  0  0
 13 14  1  0  0  0
 14 15  2  0  0  0
 15 16  1  0  0  0
 16 17  2  0  0  0
 16  1  1  0  0  0
  8  3  1  0  0  0
 15  9  1  0  0  0
 27 18  1  0  0  0
 27 22  1  0  0  0
 30 33  1  0  0  0
M  END
> <minimizedAffinity>
-7.88839

> <CNNscore>
0.2708377540

> <CNNaffinity>
6.7862024307

> <CNN_VS>
1.8379597664

> <CNNaffinity_variance>
0.0367234051

$$$$



 40 44  0  0  0  0  0  0  0  0999 V2000
    9.3906    1.3533   22.8434 N   0  0  0  0  0  0  0  0  0  0  0  0
    8.2763    0.3599   22.6965 C   0  0  0  0  0  0  0  0  0  0  0  0
    8.4121   -1.0122   23.2871 C   0  0  0  0  0  0  0  0  0  0  0  0
    8.4043   -2.4139   23.8211 C   0  0  0  0  0  0  0  0  0  0  0  0
    9.1138   -3.1747   24.4491 O   0  0  0  0  0  0  0  0  0  0  0  0
    7.0974   -3.0463   23.4444 N   0  0  0  0  0  0  0  0  0  0  0  0
    6.2973   -2.0355   22.6776 C   0  0  0  0  0  0  0  0  0  0  0  0
    7.1098   -0.7784   22.5803 C   0  0  0  0  0  0  0  0  0  0  0  0
    9.6621   -1.3910   24.0247 C   0  0  0  0  0  0  0  0  0  0  0  0
    9.7978   -2.7631   24.6154 C   0  0  0  0  0  0  0  0  0  0  0  0
   11.0478   -3.1418   25.3529 C   0  0  0  0  0  0  0  0  0  0  0  0
   11.1836   -4.5139   25.9436 F   0  0  0  0  0  0  0  0  0  0  0  0
   12.1621   -2.1484   25.4999 C   0  0  0  0  0  0  0  0  0  0  0  0
   12.0264   -0.7763   24.9092 C   0  0  0  0  0  0  0  0  0  0  0  0
   10.7764   -0.3976   24.1717 C   0  0  0  0  0  0  0  0  0  0  0  0
   10.6406    0.9746   23.5810 C   0  0  0  0  0  0  0  0  0  0  0  0
   11.7549    1.9679   23.7279 O   0  0  0  0  0  0  0  0  0  0  0  0
    6.6662   -4.4442   23.7763 C   0  0  0  0  0  0  0  0  0  0  0  0
    7.1759   -5.5987   22.9656 C   0  0  0  0  0  0  0  0  0  0  0  0
    6.7447   -6.9965   23.2974 N   0  0  0  0  0  0  0  0  0  0  0  0
    5.8039   -7.2398   24.4401 C   0  0  0  0  0  0  0  0  0  0  0  0
    5.2943   -6.0853   25.2509 C   0  0  0  0  0  0  0  0  0  0  0  0
    4.3534   -6.3286   26.3936 C   0  0  0  0  0  0  0  0  0  0  0  0
    3.8438   -5.1740   27.2043 C   0  0  0  0  0  0  0  0  0  0  0  0
    4.2750   -3.7762   26.8724 C   0  0  0  0  0  0  0  0  0  0  0  0
    5.2158   -3.5329   25.7297 C   0  0  0  0  0  0  0  0  0  0  0  0
    5.7254   -4.6874   24.9190 C   0  0  0  0  0  0  0  0  0  0  0  0
    9.2548    2.7254   22.2527 C   0  0  0  0  0  0  0  0  0  0  0  0
   11.4208    5.8171   23.4774 C   0  0  0  0  0  0  0  0  0  0  0  0
   10.2937    4.8345   23.3583 N   0  0  0  0  0  0  0  0  0  0  0  0
   10.3819    3.7081   22.3718 C   0  0  0  0  0  0  0  0  0  0  0  0
   11.5971    3.5643   21.5042 O   0  0  0  0  0  0  0  0  0  0  0  0
    9.4962    4.9288   23.9278 H   0  0  0  0  0  0  0  0  0  0  0  0
    6.6932    0.4900   21.8964 C   0  0  0  0  0  0  0  0  0  0  0  0
    5.9695    0.4316   20.5839 S   0  0  0  0  0  0  0  0  0  0  0  0
    7.1410   -0.2755   19.9694 O   0  0  0  0  0  0  0  0  0  0  0  0
    4.7980    1.1387   21.1985 O   0  0  0  0  0  0  0  0  0  0  0  0
    5.2457    0.3732   19.2714 N   0  0  0  0  0  0  0  0  0  0  0  0
    5.6822   -0.6001   18.2168 C   0  0  0  0  0  0  0  0  0  0  0  0
    4.0853    1.2881   19.0135 C   0  0  0  0  0  0  0  0  0  0  0  0
 29 30  1  0  0  0
 30 31  1  0  0  0
 31 32  2  0  0  0
 31 28  1  0  0  0
 28  1  1  0  0  0
  1  2  1  0  0  0
  3  2  1  0  0  0
  3  4  1  0  0  0
  4  5  2  0  0  0
  4  6  1  0  0  0
  6 18  1  0  0  0
 18 19  2  0  0  0
 19 20  1  0  0  0
 20 21  2  0  0  0
 21 22  1  0  0  0
 22 23  2  0  0  0
 23 24  1  0  0  0
 24 25  2  0  0  0
 25 26  1  0  0  0
 26 27  2  0  0  0
  6  7  1  0  0  0
  7  8  1  0  0  0
  8 34  1  0  0  0
 34 35  1  0  0  0
 35 36  2  0  0  0
 35 37  2  0  0  0
 35 38  1  0  0  0
 38 39  1  0  0  0
 38 40  1  0  0  0
  3  9  1  0  0  0
  9 10  2  0  0  0
 10 11  1  0  0  0
 11 12  1  0  0  0
 11 13  2  0  0  0
 13 14  1  0  0  0
 14 15  2  0  0  0
 15 16  1  0  0  0
 16 17  2  0  0  0
 16  1  1  0  0  0
  8  3  1  0  0  0
 15  9  1  0  0  0
 27 18  1  0  0  0
 27 22  1  0  0  0
 30 33  1  0  0  0
M  END
> <minimizedAffinity>
-7.93486

> <CNNscore>
0.2698857784

> <CNNaffinity>
6.8225951195

> <CNN_VS>
1.8413213491

> <CNNaffinity_variance>
0.0376261286

$$$$



 40 44  0  0  0  0  0  0  0  0999 V2000
    7.2771   -2.4962   22.2348 N   0  0  0  0  0  0  0  0  0  0  0  0
    8.4040   -1.5748   22.5966 C   0  0  0  0  0  0  0  0  0  0  0  0
    8.2780   -0.1013   22.3460 C   0  0  0  0  0  0  0  0  0  0  0  0
    8.2962    1.3865   22.1556 C   0  0  0  0  0  0  0  0  0  0  0  0
    7.5892    2.2795   21.7325 O   0  0  0  0  0  0  0  0  0  0  0  0
    9.6140    1.9014   22.6537 N   0  0  0  0  0  0  0  0  0  0  0  0
   10.4103    0.7319   23.1520 C   0  0  0  0  0  0  0  0  0  0  0  0
    9.5845   -0.5058   22.9619 C   0  0  0  0  0  0  0  0  0  0  0  0
    7.0249    0.4509   21.7336 C   0  0  0  0  0  0  0  0  0  0  0  0
    6.8988    1.9244   21.4830 C   0  0  0  0  0  0  0  0  0  0  0  0
    5.6458    2.4764   20.8705 C   0  0  0  0  0  0  0  0  0  0  0  0
    5.5197    3.9500   20.6199 F   0  0  0  0  0  0  0  0  0  0  0  0
    4.5189    1.5550   20.5087 C   0  0  0  0  0  0  0  0  0  0  0  0
    4.6449    0.0815   20.7593 C   0  0  0  0  0  0  0  0  0  0  0  0
    5.8979   -0.4706   21.3717 C   0  0  0  0  0  0  0  0  0  0  0  0
    6.0241   -1.9442   21.6223 C   0  0  0  0  0  0  0  0  0  0  0  0
    4.8971   -2.8656   21.2605 O   0  0  0  0  0  0  0  0  0  0  0  0
   10.0577    3.3343   22.6536 C   0  0  0  0  0  0  0  0  0  0  0  0
   11.3445    3.7210   21.9867 C   0  0  0  0  0  0  0  0  0  0  0  0
   11.7881    5.1539   21.9865 N   0  0  0  0  0  0  0  0  0  0  0  0
   10.9451    6.2001   22.6533 C   0  0  0  0  0  0  0  0  0  0  0  0
    9.6583    5.8134   23.3202 C   0  0  0  0  0  0  0  0  0  0  0  0
    8.8152    6.8597   23.9871 C   0  0  0  0  0  0  0  0  0  0  0  0
    7.5285    6.4729   24.6540 C   0  0  0  0  0  0  0  0  0  0  0  0
    7.0848    5.0401   24.6541 C   0  0  0  0  0  0  0  0  0  0  0  0
    7.9279    3.9939   23.9873 C   0  0  0  0  0  0  0  0  0  0  0  0
    9.2146    4.3805   23.3204 C   0  0  0  0  0  0  0  0  0  0  0  0
    7.4032   -3.9698   22.4854 C   0  0  0  0  0  0  0  0  0  0  0  0
    5.4949   -4.8526   25.8512 C   0  0  0  0  0  0  0  0  0  0  0  0
    5.7801   -4.2967   24.4876 N   0  0  0  0  0  0  0  0  0  0  0  0
    7.1179   -4.5257   23.8490 C   0  0  0  0  0  0  0  0  0  0  0  0
    8.1706   -5.3108   24.5742 O   0  0  0  0  0  0  0  0  0  0  0  0
    5.0893   -3.7815   24.0116 H   0  0  0  0  0  0  0  0  0  0  0  0
    9.9936   -1.9028   23.3239 C   0  0  0  0  0  0  0  0  0  0  0  0
   11.0496   -2.1291   24.3648 S   0  0  0  0  0  0  0  0  0  0  0  0
   12.1134   -1.9818   23.3176 O   0  0  0  0  0  0  0  0  0  0  0  0
    9.9858   -2.2765   25.4120 O   0  0  0  0  0  0  0  0  0  0  0  0
   12.1056   -2.3555   25.4057 N   0  0  0  0  0  0  0  0  0  0  0  0
   13.3866   -1.5765   25.3565 C   0  0  0  0  0  0  0  0  0  0  0  0
   11.8808   -3.3609   26.4960 C   0  0  0  0  0  0  0  0  0  0  0  0
 29 30  1  0  0  0
 30 31  1  0  0  0
 31 32  2  0  0  0
 31 28  1  0  0  0
 28  1  1  0  0  0
  1  2  1  0  0  0
  3  2  1  0  0  0
  3  4  1  0  0  0
  4  5  2  0  0  0
  4  6  1  0  0  0
  6 18  1  0  0  0
 18 19  2  0  0  0
 19 20  1  0  0  0
 20 21  2  0  0  0
 21 22  1  0  0  0
 22 23  2  0  0  0
 23 24  1  0  0  0
 24 25  2  0  0  0
 25 26  1  0  0  0
 26 27  2  0  0  0
  6  7  1  0  0  0
  7  8  1  0  0  0
  8 34  1  0  0  0
 34 35  1  0  0  0
 35 36  2  0  0  0
 35 37  2  0  0  0
 35 38  1  0  0  0
 38 39  1  0  0  0
 38 40  1  0  0  0
  3  9  1  0  0  0
  9 10  2  0  0  0
 10 11  1  0  0  0
 11 12  1  0  0  0
 11 13  2  0  0  0
 13 14  1  0  0  0
 14 15  2  0  0  0
 15 16  1  0  0  0
 16 17  2  0  0  0
 16  1  1  0  0  0
  8  3  1  0  0  0
 15  9  1  0  0  0
 27 18  1  0  0  0
 27 22  1  0  0  0
 30 33  1  0  0  0
M  END
> <minimizedAffinity>
-7.40249

> <CNNscore>
0.2564837039

> <CNNaffinity>
6.7333998680

> <CNN_VS>
1.7270073891

> <CNNaffinity_variance>
0.0379581302

$$$$
