


 35 40  0  0  0  0  0  0  0  0999 V2000
    7.3920   -3.2419   23.5869 C   0  0  0  0  0  0  0  0  0  0  0  0
    7.6204   -2.0131   22.7574 C   0  0  0  0  0  0  0  0  0  0  0  0
    6.5178   -1.7925   21.7646 C   0  0  0  0  0  0  0  0  0  0  0  0
    6.8350   -0.5487   20.9884 N   0  0  0  0  0  0  0  0  0  0  0  0
    8.1336   -0.0007   21.5016 C   0  0  0  0  0  0  0  0  0  0  0  0
    8.8253    1.2355   21.0081 O   0  0  0  0  0  0  0  0  0  0  0  0
    8.6190   -0.9057   22.5950 C   0  0  0  0  0  0  0  0  0  0  0  0
    9.5248    0.2575   22.3187 C   0  0  0  0  0  0  0  0  0  0  0  0
   10.7871    0.4297   23.1105 N   0  0  0  0  0  0  0  0  0  0  0  0
   11.1436   -0.5613   24.1785 C   0  0  0  0  0  0  0  0  0  0  0  0
   12.4059   -0.3891   24.9703 O   0  0  0  0  0  0  0  0  0  0  0  0
   10.2377   -1.7246   24.4548 C   0  0  0  0  0  0  0  0  0  0  0  0
   10.5942   -2.7156   25.5229 C   0  0  0  0  0  0  0  0  0  0  0  0
    9.6883   -3.8788   25.7991 C   0  0  0  0  0  0  0  0  0  0  0  0
    8.4260   -4.0510   25.0073 C   0  0  0  0  0  0  0  0  0  0  0  0
    7.5202   -5.2143   25.2836 F   0  0  0  0  0  0  0  0  0  0  0  0
    8.0696   -3.0600   23.9393 C   0  0  0  0  0  0  0  0  0  0  0  0
    8.9754   -1.8968   23.6630 C   0  0  0  0  0  0  0  0  0  0  0  0
    6.0003    0.0431   19.8916 C   0  0  0  0  0  0  0  0  0  0  0  0
    6.1405   -0.4624   18.4864 C   0  0  0  0  0  0  0  0  0  0  0  0
    5.3058    0.1294   17.3897 N   0  0  0  0  0  0  0  0  0  0  0  0
    4.3308    1.2267   17.6982 C   0  0  0  0  0  0  0  0  0  0  0  0
    4.1905    1.7322   19.1035 C   0  0  0  0  0  0  0  0  0  0  0  0
    3.2154    2.8296   19.4119 C   0  0  0  0  0  0  0  0  0  0  0  0
    3.0752    3.3350   20.8172 C   0  0  0  0  0  0  0  0  0  0  0  0
    3.9100    2.7432   21.9139 C   0  0  0  0  0  0  0  0  0  0  0  0
    4.8850    1.6459   21.6054 C   0  0  0  0  0  0  0  0  0  0  0  0
    5.0253    1.1404   20.2002 C   0  0  0  0  0  0  0  0  0  0  0  0
   11.6930    1.5930   22.8342 C   0  0  0  0  0  0  0  0  0  0  0  0
   11.1423    2.9882   22.8313 C   0  0  0  0  0  0  0  0  0  0  0  0
   11.8473    4.2133   22.3291 C   0  0  0  0  0  0  0  0  0  0  0  0
   10.9307    5.3856   22.5175 C   0  0  0  0  0  0  0  0  0  0  0  0
    9.6591    4.8850   23.1362 N   0  0  0  0  0  0  0  0  0  0  0  0
    9.7900    3.4034   23.3301 N   0  0  0  0  0  0  0  0  0  0  0  0
    8.7508    2.4962   23.9193 C   0  0  0  0  0  0  0  0  0  0  0  0
  2  1  1  0  0  0
  2  3  1  0  0  0
  3  4  1  0  0  0
  4 19  1  0  0  0
 19 20  2  0  0  0
 20 21  1  0  0  0
 21 22  2  0  0  0
 22 23  1  0  0  0
 23 24  2  0  0  0
 24 25  1  0  0  0
 25 26  2  0  0  0
 26 27  1  0  0  0
 27 28  2  0  0  0
  4  5  1  0  0  0
  5  6  2  0  0  0
  5  7  1  0  0  0
  7  8  1  0  0  0
  8  9  1  0  0  0
  9 29  1  0  0  0
 29 30  1  0  0  0
 30 31  2  0  0  0
 31 32  1  0  0  0
 32 33  2  0  0  0
 33 34  1  0  0  0
 34 35  1  0  0  0
  9 10  1  0  0  0
 10 11  2  0  0  0
 10 12  1  0  0  0
 12 13  2  0  0  0
 13 14  1  0  0  0
 14 15  2  0  0  0
 15 16  1  0  0  0
 15 17  1  0  0  0
 17 18  2  0  0  0
  7  2  1  0  0  0
 34 30  1  0  0  0
 18 12  1  0  0  0
 28 19  1  0  0  0
 18  7  1  0  0  0
 28 23  1  0  0  0
M  END
> <minimizedAffinity>
-9.05245

> <CNNscore>
0.6231735945

> <CNNaffinity>
6.8636083603

> <CNN_VS>
4.2772192955

> <CNNaffinity_variance>
0.1047983617

$$$$



 35 40  0  0  0  0  0  0  0  0999 V2000
    9.1680   -0.9317   23.7264 C   0  0  0  0  0  0  0  0  0  0  0  0
    7.9985   -1.3416   22.8812 C   0  0  0  0  0  0  0  0  0  0  0  0
    7.5575   -0.2421   21.9610 C   0  0  0  0  0  0  0  0  0  0  0  0
    6.3912   -0.7452   21.1632 N   0  0  0  0  0  0  0  0  0  0  0  0
    6.1113   -2.1556   21.5904 C   0  0  0  0  0  0  0  0  0  0  0  0
    5.0282   -3.0418   21.0505 O   0  0  0  0  0  0  0  0  0  0  0  0
    7.1047   -2.5242   22.6521 C   0  0  0  0  0  0  0  0  0  0  0  0
    6.1369   -3.6197   22.3154 C   0  0  0  0  0  0  0  0  0  0  0  0
    6.2216   -4.9392   23.0237 N   0  0  0  0  0  0  0  0  0  0  0  0
    7.2741   -5.1633   24.0687 C   0  0  0  0  0  0  0  0  0  0  0  0
    7.3588   -6.4828   24.7770 O   0  0  0  0  0  0  0  0  0  0  0  0
    8.2419   -4.0678   24.4055 C   0  0  0  0  0  0  0  0  0  0  0  0
    9.2943   -4.2919   25.4505 C   0  0  0  0  0  0  0  0  0  0  0  0
   10.2621   -3.1964   25.7872 C   0  0  0  0  0  0  0  0  0  0  0  0
   10.1774   -1.8769   25.0789 C   0  0  0  0  0  0  0  0  0  0  0  0
   11.1452   -0.7814   25.4157 F   0  0  0  0  0  0  0  0  0  0  0  0
    9.1249   -1.6528   24.0339 C   0  0  0  0  0  0  0  0  0  0  0  0
    8.1572   -2.7483   23.6972 C   0  0  0  0  0  0  0  0  0  0  0  0
    5.6370    0.0266   20.1213 C   0  0  0  0  0  0  0  0  0  0  0  0
    6.0613   -0.0414   18.6842 C   0  0  0  0  0  0  0  0  0  0  0  0
    5.3072    0.7304   17.6423 N   0  0  0  0  0  0  0  0  0  0  0  0
    4.1288    1.5701   18.0375 C   0  0  0  0  0  0  0  0  0  0  0  0
    3.7045    1.6380   19.4747 C   0  0  0  0  0  0  0  0  0  0  0  0
    2.5260    2.4778   19.8699 C   0  0  0  0  0  0  0  0  0  0  0  0
    2.1018    2.5457   21.3070 C   0  0  0  0  0  0  0  0  0  0  0  0
    2.8559    1.7739   22.3489 C   0  0  0  0  0  0  0  0  0  0  0  0
    4.0343    0.9342   21.9537 C   0  0  0  0  0  0  0  0  0  0  0  0
    4.4586    0.8663   20.5166 C   0  0  0  0  0  0  0  0  0  0  0  0
    5.2538   -6.0347   22.6869 C   0  0  0  0  0  0  0  0  0  0  0  0
    3.9381   -6.1192   23.4022 C   0  0  0  0  0  0  0  0  0  0  0  0
    2.7067   -6.8157   22.9038 C   0  0  0  0  0  0  0  0  0  0  0  0
    1.6303   -6.6490   23.9351 C   0  0  0  0  0  0  0  0  0  0  0  0
    2.1966   -5.8495   25.0710 N   0  0  0  0  0  0  0  0  0  0  0  0
    3.6229   -5.5221   24.7416 N   0  0  0  0  0  0  0  0  0  0  0  0
    4.5679   -4.7356   25.6009 C   0  0  0  0  0  0  0  0  0  0  0  0
  2  1  1  0  0  0
  2  3  1  0  0  0
  3  4  1  0  0  0
  4 19  1  0  0  0
 19 20  2  0  0  0
 20 21  1  0  0  0
 21 22  2  0  0  0
 22 23  1  0  0  0
 23 24  2  0  0  0
 24 25  1  0  0  0
 25 26  2  0  0  0
 26 27  1  0  0  0
 27 28  2  0  0  0
  4  5  1  0  0  0
  5  6  2  0  0  0
  5  7  1  0  0  0
  7  8  1  0  0  0
  8  9  1  0  0  0
  9 29  1  0  0  0
 29 30  1  0  0  0
 30 31  2  0  0  0
 31 32  1  0  0  0
 32 33  2  0  0  0
 33 34  1  0  0  0
 34 35  1  0  0  0
  9 10  1  0  0  0
 10 11  2  0  0  0
 10 12  1  0  0  0
 12 13  2  0  0  0
 13 14  1  0  0  0
 14 15  2  0  0  0
 15 16  1  0  0  0
 15 17  1  0  0  0
 17 18  2  0  0  0
  7  2  1  0  0  0
 34 30  1  0  0  0
 18 12  1  0  0  0
 28 19  1  0  0  0
 18  7  1  0  0  0
 28 23  1  0  0  0
M  END
> <minimizedAffinity>
-8.28298

> <CNNscore>
0.5023459196

> <CNNaffinity>
6.5664634705

> <CNN_VS>
3.2986361980

> <CNNaffinity_variance>
0.0338205174

$$$$



 35 40  0  0  0  0  0  0  0  0999 V2000
   11.0187    0.0482   22.5159 C   0  0  0  0  0  0  0  0  0  0  0  0
    9.6262   -0.4654   22.2989 C   0  0  0  0  0  0  0  0  0  0  0  0
    8.9024    0.3053   21.2349 C   0  0  0  0  0  0  0  0  0  0  0  0
    7.5285   -0.2795   21.0924 N   0  0  0  0  0  0  0  0  0  0  0  0
    7.4031   -1.4117   22.0684 C   0  0  0  0  0  0  0  0  0  0  0  0
    6.1936   -2.2769   22.2643 O   0  0  0  0  0  0  0  0  0  0  0  0
    8.6995   -1.5266   22.8141 C   0  0  0  0  0  0  0  0  0  0  0  0
    7.6670   -2.5332   23.2270 C   0  0  0  0  0  0  0  0  0  0  0  0
    7.9816   -3.5335   24.2995 N   0  0  0  0  0  0  0  0  0  0  0  0
    9.3287   -3.5273   24.9592 C   0  0  0  0  0  0  0  0  0  0  0  0
    9.6432   -4.5276   26.0317 O   0  0  0  0  0  0  0  0  0  0  0  0
   10.3613   -2.5206   24.5463 C   0  0  0  0  0  0  0  0  0  0  0  0
   11.7084   -2.5143   25.2060 C   0  0  0  0  0  0  0  0  0  0  0  0
   12.7410   -1.5077   24.7931 C   0  0  0  0  0  0  0  0  0  0  0  0
   12.4264   -0.5074   23.7206 C   0  0  0  0  0  0  0  0  0  0  0  0
   13.4590    0.4993   23.3077 F   0  0  0  0  0  0  0  0  0  0  0  0
   11.0793   -0.5136   23.0609 C   0  0  0  0  0  0  0  0  0  0  0  0
   10.0467   -1.5203   23.4738 C   0  0  0  0  0  0  0  0  0  0  0  0
    6.4664    0.1860   20.1410 C   0  0  0  0  0  0  0  0  0  0  0  0
    6.3324   -0.4581   18.7930 C   0  0  0  0  0  0  0  0  0  0  0  0
    5.2703    0.0074   17.8416 N   0  0  0  0  0  0  0  0  0  0  0  0
    4.3422    1.1171   18.2382 C   0  0  0  0  0  0  0  0  0  0  0  0
    4.4763    1.7613   19.5862 C   0  0  0  0  0  0  0  0  0  0  0  0
    3.5482    2.8711   19.9828 C   0  0  0  0  0  0  0  0  0  0  0  0
    3.6824    3.5152   21.3308 C   0  0  0  0  0  0  0  0  0  0  0  0
    4.7444    3.0496   22.2821 C   0  0  0  0  0  0  0  0  0  0  0  0
    5.6725    1.9399   21.8855 C   0  0  0  0  0  0  0  0  0  0  0  0
    5.5384    1.2957   20.5376 C   0  0  0  0  0  0  0  0  0  0  0  0
    6.9489   -4.5402   24.7124 C   0  0  0  0  0  0  0  0  0  0  0  0
    6.1506   -5.2662   23.6705 C   0  0  0  0  0  0  0  0  0  0  0  0
    6.6471   -5.7001   22.3232 C   0  0  0  0  0  0  0  0  0  0  0  0
    5.5190   -6.3879   21.6130 C   0  0  0  0  0  0  0  0  0  0  0  0
    4.3254   -6.3791   22.5214 N   0  0  0  0  0  0  0  0  0  0  0  0
    4.7158   -5.6858   23.7930 N   0  0  0  0  0  0  0  0  0  0  0  0
    3.8273   -5.4531   24.9789 C   0  0  0  0  0  0  0  0  0  0  0  0
  2  1  1  0  0  0
  2  3  1  0  0  0
  3  4  1  0  0  0
  4 19  1  0  0  0
 19 20  2  0  0  0
 20 21  1  0  0  0
 21 22  2  0  0  0
 22 23  1  0  0  0
 23 24  2  0  0  0
 24 25  1  0  0  0
 25 26  2  0  0  0
 26 27  1  0  0  0
 27 28  2  0  0  0
  4  5  1  0  0  0
  5  6  2  0  0  0
  5  7  1  0  0  0
  7  8  1  0  0  0
  8  9  1  0  0  0
  9 29  1  0  0  0
 29 30  1  0  0  0
 30 31  2  0  0  0
 31 32  1  0  0  0
 32 33  2  0  0  0
 33 34  1  0  0  0
 34 35  1  0  0  0
  9 10  1  0  0  0
 10 11  2  0  0  0
 10 12  1  0  0  0
 12 13  2  0  0  0
 13 14  1  0  0  0
 14 15  2  0  0  0
 15 16  1  0  0  0
 15 17  1  0  0  0
 17 18  2  0  0  0
  7  2  1  0  0  0
 34 30  1  0  0  0
 18 12  1  0  0  0
 28 19  1  0  0  0
 18  7  1  0  0  0
 28 23  1  0  0  0
M  END
> <minimizedAffinity>
-9.41759

> <CNNscore>
0.3941593766

> <CNNaffinity>
6.7022504807

> <CNN_VS>
2.6417548656

> <CNNaffinity_variance>
0.1480464637

$$$$



 35 40  0  0  0  0  0  0  0  0999 V2000
   10.9530   -3.3205   26.1769 C   0  0  0  0  0  0  0  0  0  0  0  0
    9.5689   -2.8772   25.8057 C   0  0  0  0  0  0  0  0  0  0  0  0
    8.5163   -3.7677   26.3965 C   0  0  0  0  0  0  0  0  0  0  0  0
    7.1758   -3.2460   25.9713 N   0  0  0  0  0  0  0  0  0  0  0  0
    7.3999   -2.0331   25.1177 C   0  0  0  0  0  0  0  0  0  0  0  0
    6.3324   -1.1952   24.4786 O   0  0  0  0  0  0  0  0  0  0  0  0
    8.8790   -1.8051   25.0153 C   0  0  0  0  0  0  0  0  0  0  0  0
    8.0537   -0.8005   24.2674 C   0  0  0  0  0  0  0  0  0  0  0  0
    8.7249    0.3053   23.5080 N   0  0  0  0  0  0  0  0  0  0  0  0
   10.2214    0.4064   23.4965 C   0  0  0  0  0  0  0  0  0  0  0  0
   10.8926    1.5122   22.7371 O   0  0  0  0  0  0  0  0  0  0  0  0
   11.0468   -0.5983   24.2445 C   0  0  0  0  0  0  0  0  0  0  0  0
   12.5433   -0.4972   24.2330 C   0  0  0  0  0  0  0  0  0  0  0  0
   13.3686   -1.5019   24.9809 C   0  0  0  0  0  0  0  0  0  0  0  0
   12.6974   -2.6077   25.7403 C   0  0  0  0  0  0  0  0  0  0  0  0
   13.5227   -3.6124   26.4883 F   0  0  0  0  0  0  0  0  0  0  0  0
   11.2008   -2.7088   25.7518 C   0  0  0  0  0  0  0  0  0  0  0  0
   10.3756   -1.7041   25.0039 C   0  0  0  0  0  0  0  0  0  0  0  0
    5.8448   -3.8339   26.3357 C   0  0  0  0  0  0  0  0  0  0  0  0
    5.0790   -4.6385   25.3278 C   0  0  0  0  0  0  0  0  0  0  0  0
    3.7480   -5.2264   25.6922 N   0  0  0  0  0  0  0  0  0  0  0  0
    3.1829   -5.0097   27.0646 C   0  0  0  0  0  0  0  0  0  0  0  0
    3.9487   -4.2051   28.0726 C   0  0  0  0  0  0  0  0  0  0  0  0
    3.3835   -3.9883   29.4451 C   0  0  0  0  0  0  0  0  0  0  0  0
    4.1494   -3.1837   30.4531 C   0  0  0  0  0  0  0  0  0  0  0  0
    5.4803   -2.5958   30.0886 C   0  0  0  0  0  0  0  0  0  0  0  0
    6.0454   -2.8125   28.7162 C   0  0  0  0  0  0  0  0  0  0  0  0
    5.2797   -3.6171   27.7082 C   0  0  0  0  0  0  0  0  0  0  0  0
    7.8995    1.3101   22.7600 C   0  0  0  0  0  0  0  0  0  0  0  0
    7.2294    0.9228   21.4752 C   0  0  0  0  0  0  0  0  0  0  0  0
    7.6313   -0.2099   20.5777 C   0  0  0  0  0  0  0  0  0  0  0  0
    6.6901   -0.2325   19.4100 C   0  0  0  0  0  0  0  0  0  0  0  0
    5.7065    0.8863   19.5858 N   0  0  0  0  0  0  0  0  0  0  0  0
    6.0399    1.6003   20.8621 N   0  0  0  0  0  0  0  0  0  0  0  0
    5.3115    2.7840   21.4263 C   0  0  0  0  0  0  0  0  0  0  0  0
  2  1  1  0  0  0
  2  3  1  0  0  0
  3  4  1  0  0  0
  4 19  1  0  0  0
 19 20  2  0  0  0
 20 21  1  0  0  0
 21 22  2  0  0  0
 22 23  1  0  0  0
 23 24  2  0  0  0
 24 25  1  0  0  0
 25 26  2  0  0  0
 26 27  1  0  0  0
 27 28  2  0  0  0
  4  5  1  0  0  0
  5  6  2  0  0  0
  5  7  1  0  0  0
  7  8  1  0  0  0
  8  9  1  0  0  0
  9 29  1  0  0  0
 29 30  1  0  0  0
 30 31  2  0  0  0
 31 32  1  0  0  0
 32 33  2  0  0  0
 33 34  1  0  0  0
 34 35  1  0  0  0
  9 10  1  0  0  0
 10 11  2  0  0  0
 10 12  1  0  0  0
 12 13  2  0  0  0
 13 14  1  0  0  0
 14 15  2  0  0  0
 15 16  1  0  0  0
 15 17  1  0  0  0
 17 18  2  0  0  0
  7  2  1  0  0  0
 34 30  1  0  0  0
 18 12  1  0  0  0
 28 19  1  0  0  0
 18  7  1  0  0  0
 28 23  1  0  0  0
M  END
> <minimizedAffinity>
-8.72010

> <CNNscore>
0.3494391143

> <CNNaffinity>
6.4971799850

> <CNN_VS>
2.2703688145

> <CNNaffinity_variance>
0.1409273297

$$$$



 35 40  0  0  0  0  0  0  0  0999 V2000
   10.5528    0.0581   22.8244 C   0  0  0  0  0  0  0  0  0  0  0  0
    9.1170   -0.2971   22.5743 C   0  0  0  0  0  0  0  0  0  0  0  0
    8.5982    0.3181   21.3084 C   0  0  0  0  0  0  0  0  0  0  0  0
    7.1646   -0.0926   21.1472 N   0  0  0  0  0  0  0  0  0  0  0  0
    6.7974   -0.9616   22.3134 C   0  0  0  0  0  0  0  0  0  0  0  0
    5.4585   -1.5933   22.5550 O   0  0  0  0  0  0  0  0  0  0  0  0
    8.0040   -1.0880   23.1954 C   0  0  0  0  0  0  0  0  0  0  0  0
    6.8023   -1.8338   23.6950 C   0  0  0  0  0  0  0  0  0  0  0  0
    6.8820   -2.6141   24.9736 N   0  0  0  0  0  0  0  0  0  0  0  0
    8.1634   -2.6486   25.7526 C   0  0  0  0  0  0  0  0  0  0  0  0
    8.2431   -3.4289   27.0312 O   0  0  0  0  0  0  0  0  0  0  0  0
    9.3652   -1.9028   25.2530 C   0  0  0  0  0  0  0  0  0  0  0  0
   10.6465   -1.9373   26.0319 C   0  0  0  0  0  0  0  0  0  0  0  0
   11.8482   -1.1915   25.5323 C   0  0  0  0  0  0  0  0  0  0  0  0
   11.7686   -0.4112   24.2537 C   0  0  0  0  0  0  0  0  0  0  0  0
   12.9704    0.3346   23.7541 F   0  0  0  0  0  0  0  0  0  0  0  0
   10.4872   -0.3767   23.4747 C   0  0  0  0  0  0  0  0  0  0  0  0
    9.2855   -1.1225   23.9744 C   0  0  0  0  0  0  0  0  0  0  0  0
    6.2574    0.2972   20.0180 C   0  0  0  0  0  0  0  0  0  0  0  0
    6.4351   -0.3242   18.6645 C   0  0  0  0  0  0  0  0  0  0  0  0
    5.5279    0.0656   17.5353 N   0  0  0  0  0  0  0  0  0  0  0  0
    4.4431    1.0770   17.7597 C   0  0  0  0  0  0  0  0  0  0  0  0
    4.2655    1.6985   19.1133 C   0  0  0  0  0  0  0  0  0  0  0  0
    3.1806    2.7099   19.3377 C   0  0  0  0  0  0  0  0  0  0  0  0
    3.0031    3.3313   20.6913 C   0  0  0  0  0  0  0  0  0  0  0  0
    3.9102    2.9414   21.8204 C   0  0  0  0  0  0  0  0  0  0  0  0
    4.9950    1.9301   21.5960 C   0  0  0  0  0  0  0  0  0  0  0  0
    5.1727    1.3086   20.2425 C   0  0  0  0  0  0  0  0  0  0  0  0
    5.6802   -3.3599   25.4732 C   0  0  0  0  0  0  0  0  0  0  0  0
    5.5646   -4.8373   25.2414 C   0  0  0  0  0  0  0  0  0  0  0  0
    4.7912   -5.8047   26.0876 C   0  0  0  0  0  0  0  0  0  0  0  0
    4.9506   -7.1721   25.4918 C   0  0  0  0  0  0  0  0  0  0  0  0
    5.8226   -7.0497   24.2774 N   0  0  0  0  0  0  0  0  0  0  0  0
    6.2020   -5.6068   24.1227 N   0  0  0  0  0  0  0  0  0  0  0  0
    7.0670   -5.0339   23.0393 C   0  0  0  0  0  0  0  0  0  0  0  0
  2  1  1  0  0  0
  2  3  1  0  0  0
  3  4  1  0  0  0
  4 19  1  0  0  0
 19 20  2  0  0  0
 20 21  1  0  0  0
 21 22  2  0  0  0
 22 23  1  0  0  0
 23 24  2  0  0  0
 24 25  1  0  0  0
 25 26  2  0  0  0
 26 27  1  0  0  0
 27 28  2  0  0  0
  4  5  1  0  0  0
  5  6  2  0  0  0
  5  7  1  0  0  0
  7  8  1  0  0  0
  8  9  1  0  0  0
  9 29  1  0  0  0
 29 30  1  0  0  0
 30 31  2  0  0  0
 31 32  1  0  0  0
 32 33  2  0  0  0
 33 34  1  0  0  0
 34 35  1  0  0  0
  9 10  1  0  0  0
 10 11  2  0  0  0
 10 12  1  0  0  0
 12 13  2  0  0  0
 13 14  1  0  0  0
 14 15  2  0  0  0
 15 16  1  0  0  0
 15 17  1  0  0  0
 17 18  2  0  0  0
  7  2  1  0  0  0
 34 30  1  0  0  0
 18 12  1  0  0  0
 28 19  1  0  0  0
 18  7  1  0  0  0
 28 23  1  0  0  0
M  END
> <minimizedAffinity>
-9.56589

> <CNNscore>
0.2595251203

> <CNNaffinity>
6.5077447891

> <CNN_VS>
1.6889232397

> <CNNaffinity_variance>
0.0773905963

$$$$



 35 40  0  0  0  0  0  0  0  0999 V2000
    7.0421   -1.0748   20.6528 C   0  0  0  0  0  0  0  0  0  0  0  0
    7.9920   -0.5056   21.6646 C   0  0  0  0  0  0  0  0  0  0  0  0
    8.9635   -1.5338   22.1637 C   0  0  0  0  0  0  0  0  0  0  0  0
    9.8649   -0.8727   23.1640 N   0  0  0  0  0  0  0  0  0  0  0  0
    9.4504    0.5640   23.2830 C   0  0  0  0  0  0  0  0  0  0  0  0
   10.0825    1.5932   24.1725 O   0  0  0  0  0  0  0  0  0  0  0  0
    8.2930    0.7909   22.3563 C   0  0  0  0  0  0  0  0  0  0  0  0
    8.7092    2.0113   23.1226 C   0  0  0  0  0  0  0  0  0  0  0  0
    7.9806    3.3071   22.9227 N   0  0  0  0  0  0  0  0  0  0  0  0
    6.8357    3.3825   21.9565 C   0  0  0  0  0  0  0  0  0  0  0  0
    6.1071    4.6783   21.7566 O   0  0  0  0  0  0  0  0  0  0  0  0
    6.4194    2.1621   21.1902 C   0  0  0  0  0  0  0  0  0  0  0  0
    5.2745    2.2375   20.2240 C   0  0  0  0  0  0  0  0  0  0  0  0
    4.8583    1.0170   19.4577 C   0  0  0  0  0  0  0  0  0  0  0  0
    5.5869   -0.2788   19.6576 C   0  0  0  0  0  0  0  0  0  0  0  0
    5.1706   -1.4993   18.8912 F   0  0  0  0  0  0  0  0  0  0  0  0
    6.7318   -0.3542   20.6238 C   0  0  0  0  0  0  0  0  0  0  0  0
    7.1480    0.8662   21.3900 C   0  0  0  0  0  0  0  0  0  0  0  0
   10.9841   -1.5324   23.9137 C   0  0  0  0  0  0  0  0  0  0  0  0
   12.4025   -1.3408   23.4652 C   0  0  0  0  0  0  0  0  0  0  0  0
   13.5218   -2.0005   24.2148 N   0  0  0  0  0  0  0  0  0  0  0  0
   13.2226   -2.8519   25.4130 C   0  0  0  0  0  0  0  0  0  0  0  0
   11.8040   -3.0435   25.8615 C   0  0  0  0  0  0  0  0  0  0  0  0
   11.5048   -3.8949   27.0597 C   0  0  0  0  0  0  0  0  0  0  0  0
   10.0863   -4.0865   27.5082 C   0  0  0  0  0  0  0  0  0  0  0  0
    8.9671   -3.4267   26.7585 C   0  0  0  0  0  0  0  0  0  0  0  0
    9.2664   -2.5754   25.5603 C   0  0  0  0  0  0  0  0  0  0  0  0
   10.6848   -2.3838   25.1118 C   0  0  0  0  0  0  0  0  0  0  0  0
    8.3969    4.5276   23.6890 C   0  0  0  0  0  0  0  0  0  0  0  0
    9.4410    5.4462   23.1269 C   0  0  0  0  0  0  0  0  0  0  0  0
    9.3114    6.9313   22.9605 C   0  0  0  0  0  0  0  0  0  0  0  0
   10.5883    7.4440   22.3632 C   0  0  0  0  0  0  0  0  0  0  0  0
   11.5070    6.2757   22.1605 N   0  0  0  0  0  0  0  0  0  0  0  0
   10.7979    5.0410   22.6325 N   0  0  0  0  0  0  0  0  0  0  0  0
   11.3491    3.6461   22.6134 C   0  0  0  0  0  0  0  0  0  0  0  0
  2  1  1  0  0  0
  2  3  1  0  0  0
  3  4  1  0  0  0
  4 19  1  0  0  0
 19 20  2  0  0  0
 20 21  1  0  0  0
 21 22  2  0  0  0
 22 23  1  0  0  0
 23 24  2  0  0  0
 24 25  1  0  0  0
 25 26  2  0  0  0
 26 27  1  0  0  0
 27 28  2  0  0  0
  4  5  1  0  0  0
  5  6  2  0  0  0
  5  7  1  0  0  0
  7  8  1  0  0  0
  8  9  1  0  0  0
  9 29  1  0  0  0
 29 30  1  0  0  0
 30 31  2  0  0  0
 31 32  1  0  0  0
 32 33  2  0  0  0
 33 34  1  0  0  0
 34 35  1  0  0  0
  9 10  1  0  0  0
 10 11  2  0  0  0
 10 12  1  0  0  0
 12 13  2  0  0  0
 13 14  1  0  0  0
 14 15  2  0  0  0
 15 16  1  0  0  0
 15 17  1  0  0  0
 17 18  2  0  0  0
  7  2  1  0  0  0
 34 30  1  0  0  0
 18 12  1  0  0  0
 28 19  1  0  0  0
 18  7  1  0  0  0
 28 23  1  0  0  0
M  END
> <minimizedAffinity>
-8.22404

> <CNNscore>
0.2504609227

> <CNNaffinity>
6.5146956444

> <CNN_VS>
1.6316766739

> <CNNaffinity_variance>
0.1714802235

$$$$



 35 40  0  0  0  0  0  0  0  0999 V2000
   10.7012    0.2183   22.6217 C   0  0  0  0  0  0  0  0  0  0  0  0
    9.3558   -0.3402   22.2640 C   0  0  0  0  0  0  0  0  0  0  0  0
    8.6389    0.5180   21.2642 C   0  0  0  0  0  0  0  0  0  0  0  0
    7.3128   -0.1194   20.9726 N   0  0  0  0  0  0  0  0  0  0  0  0
    7.2100   -1.3714   21.7921 C   0  0  0  0  0  0  0  0  0  0  0  0
    6.0485   -2.3205   21.8103 O   0  0  0  0  0  0  0  0  0  0  0  0
    8.4727   -1.5079   22.5903 C   0  0  0  0  0  0  0  0  0  0  0  0
    7.4857   -2.6146   22.8160 C   0  0  0  0  0  0  0  0  0  0  0  0
    7.8085   -3.7241   23.7725 N   0  0  0  0  0  0  0  0  0  0  0  0
    9.1184   -3.7268   24.5033 C   0  0  0  0  0  0  0  0  0  0  0  0
    9.4413   -4.8363   25.4598 O   0  0  0  0  0  0  0  0  0  0  0  0
   10.1055   -2.6201   24.2777 C   0  0  0  0  0  0  0  0  0  0  0  0
   11.4154   -2.6228   25.0085 C   0  0  0  0  0  0  0  0  0  0  0  0
   12.4024   -1.5161   24.7828 C   0  0  0  0  0  0  0  0  0  0  0  0
   12.0795   -0.4067   23.8263 C   0  0  0  0  0  0  0  0  0  0  0  0
   13.0666    0.7000   23.6007 F   0  0  0  0  0  0  0  0  0  0  0  0
   10.7697   -0.4040   23.0955 C   0  0  0  0  0  0  0  0  0  0  0  0
    9.7826   -1.5106   23.3212 C   0  0  0  0  0  0  0  0  0  0  0  0
    6.2721    0.4035   20.0273 C   0  0  0  0  0  0  0  0  0  0  0  0
    6.2320   -0.0865   18.6103 C   0  0  0  0  0  0  0  0  0  0  0  0
    5.1913    0.4364   17.6650 N   0  0  0  0  0  0  0  0  0  0  0  0
    4.1907    1.4493   18.1369 C   0  0  0  0  0  0  0  0  0  0  0  0
    4.2307    1.9394   19.5541 C   0  0  0  0  0  0  0  0  0  0  0  0
    3.2300    2.9523   20.0259 C   0  0  0  0  0  0  0  0  0  0  0  0
    3.2702    3.4423   21.4431 C   0  0  0  0  0  0  0  0  0  0  0  0
    4.3109    2.9194   22.3883 C   0  0  0  0  0  0  0  0  0  0  0  0
    5.3115    1.9065   21.9164 C   0  0  0  0  0  0  0  0  0  0  0  0
    5.2714    1.4165   20.4993 C   0  0  0  0  0  0  0  0  0  0  0  0
    6.8214   -4.8308   23.9982 C   0  0  0  0  0  0  0  0  0  0  0  0
    5.9110   -4.7924   25.1896 C   0  0  0  0  0  0  0  0  0  0  0  0
    5.8035   -3.6722   26.1814 C   0  0  0  0  0  0  0  0  0  0  0  0
    4.7743   -4.0549   27.2033 C   0  0  0  0  0  0  0  0  0  0  0  0
    4.2456   -5.4116   26.8429 N   0  0  0  0  0  0  0  0  0  0  0  0
    4.9481   -5.8674   25.5985 N   0  0  0  0  0  0  0  0  0  0  0  0
    4.7266   -7.1696   24.8877 C   0  0  0  0  0  0  0  0  0  0  0  0
  2  1  1  0  0  0
  2  3  1  0  0  0
  3  4  1  0  0  0
  4 19  1  0  0  0
 19 20  2  0  0  0
 20 21  1  0  0  0
 21 22  2  0  0  0
 22 23  1  0  0  0
 23 24  2  0  0  0
 24 25  1  0  0  0
 25 26  2  0  0  0
 26 27  1  0  0  0
 27 28  2  0  0  0
  4  5  1  0  0  0
  5  6  2  0  0  0
  5  7  1  0  0  0
  7  8  1  0  0  0
  8  9  1  0  0  0
  9 29  1  0  0  0
 29 30  1  0  0  0
 30 31  2  0  0  0
 31 32  1  0  0  0
 32 33  2  0  0  0
 33 34  1  0  0  0
 34 35  1  0  0  0
  9 10  1  0  0  0
 10 11  2  0  0  0
 10 12  1  0  0  0
 12 13  2  0  0  0
 13 14  1  0  0  0
 14 15  2  0  0  0
 15 16  1  0  0  0
 15 17  1  0  0  0
 17 18  2  0  0  0
  7  2  1  0  0  0
 34 30  1  0  0  0
 18 12  1  0  0  0
 28 19  1  0  0  0
 18  7  1  0  0  0
 28 23  1  0  0  0
M  END
> <minimizedAffinity>
-9.19834

> <CNNscore>
0.2338925451

> <CNNaffinity>
6.4968466759

> <CNN_VS>
1.5195640326

> <CNNaffinity_variance>
0.0412505977

$$$$



 35 40  0  0  0  0  0  0  0  0999 V2000
   10.8139   -3.7416   25.6225 C   0  0  0  0  0  0  0  0  0  0  0  0
    9.6154   -3.4297   24.7760 C   0  0  0  0  0  0  0  0  0  0  0  0
    8.5586   -4.4885   24.8865 C   0  0  0  0  0  0  0  0  0  0  0  0
    7.4088   -4.0889   24.0100 N   0  0  0  0  0  0  0  0  0  0  0  0
    7.7550   -2.7832   23.3579 C   0  0  0  0  0  0  0  0  0  0  0  0
    6.8893   -2.0191   22.4004 O   0  0  0  0  0  0  0  0  0  0  0  0
    9.1187   -2.3757   23.8313 C   0  0  0  0  0  0  0  0  0  0  0  0
    8.4917   -1.4082   22.8718 C   0  0  0  0  0  0  0  0  0  0  0  0
    9.2293   -0.1651   22.4710 N   0  0  0  0  0  0  0  0  0  0  0  0
   10.5938    0.1105   23.0296 C   0  0  0  0  0  0  0  0  0  0  0  0
   11.3314    1.3536   22.6287 O   0  0  0  0  0  0  0  0  0  0  0  0
   11.2209   -0.8571   23.9891 C   0  0  0  0  0  0  0  0  0  0  0  0
   12.5854   -0.5816   24.5477 C   0  0  0  0  0  0  0  0  0  0  0  0
   13.2124   -1.5492   25.5072 C   0  0  0  0  0  0  0  0  0  0  0  0
   12.4748   -2.7923   25.9081 C   0  0  0  0  0  0  0  0  0  0  0  0
   13.1018   -3.7599   26.8677 F   0  0  0  0  0  0  0  0  0  0  0  0
   11.1103   -3.0678   25.3495 C   0  0  0  0  0  0  0  0  0  0  0  0
   10.4833   -2.1002   24.3900 C   0  0  0  0  0  0  0  0  0  0  0  0
    6.1362   -4.8597   23.8190 C   0  0  0  0  0  0  0  0  0  0  0  0
    5.8858   -5.5867   22.5312 C   0  0  0  0  0  0  0  0  0  0  0  0
    4.6132   -6.3575   22.3403 N   0  0  0  0  0  0  0  0  0  0  0  0
    3.5912   -6.4013   23.4373 C   0  0  0  0  0  0  0  0  0  0  0  0
    3.8417   -5.6743   24.7253 C   0  0  0  0  0  0  0  0  0  0  0  0
    2.8196   -5.7182   25.8223 C   0  0  0  0  0  0  0  0  0  0  0  0
    3.0702   -4.9911   27.1102 C   0  0  0  0  0  0  0  0  0  0  0  0
    4.3427   -4.2204   27.3010 C   0  0  0  0  0  0  0  0  0  0  0  0
    5.3647   -4.1766   26.2040 C   0  0  0  0  0  0  0  0  0  0  0  0
    5.1142   -4.9035   24.9162 C   0  0  0  0  0  0  0  0  0  0  0  0
    8.6023    0.8025   21.5114 C   0  0  0  0  0  0  0  0  0  0  0  0
    7.8022    1.9607   22.0296 C   0  0  0  0  0  0  0  0  0  0  0  0
    8.2769    2.9917   23.0104 C   0  0  0  0  0  0  0  0  0  0  0  0
    7.1551    3.9594   23.2450 C   0  0  0  0  0  0  0  0  0  0  0  0
    5.9871    3.5265   22.4092 N   0  0  0  0  0  0  0  0  0  0  0  0
    6.3871    2.2913   21.6581 N   0  0  0  0  0  0  0  0  0  0  0  0
    5.5235    1.5217   20.7031 C   0  0  0  0  0  0  0  0  0  0  0  0
  2  1  1  0  0  0
  2  3  1  0  0  0
  3  4  1  0  0  0
  4 19  1  0  0  0
 19 20  2  0  0  0
 20 21  1  0  0  0
 21 22  2  0  0  0
 22 23  1  0  0  0
 23 24  2  0  0  0
 24 25  1  0  0  0
 25 26  2  0  0  0
 26 27  1  0  0  0
 27 28  2  0  0  0
  4  5  1  0  0  0
  5  6  2  0  0  0
  5  7  1  0  0  0
  7  8  1  0  0  0
  8  9  1  0  0  0
  9 29  1  0  0  0
 29 30  1  0  0  0
 30 31  2  0  0  0
 31 32  1  0  0  0
 32 33  2  0  0  0
 33 34  1  0  0  0
 34 35  1  0  0  0
  9 10  1  0  0  0
 10 11  2  0  0  0
 10 12  1  0  0  0
 12 13  2  0  0  0
 13 14  1  0  0  0
 14 15  2  0  0  0
 15 16  1  0  0  0
 15 17  1  0  0  0
 17 18  2  0  0  0
  7  2  1  0  0  0
 34 30  1  0  0  0
 18 12  1  0  0  0
 28 19  1  0  0  0
 18  7  1  0  0  0
 28 23  1  0  0  0
M  END
> <minimizedAffinity>
-8.68812

> <CNNscore>
0.2172239125

> <CNNaffinity>
6.4637589455

> <CNN_VS>
1.4040830135

> <CNNaffinity_variance>
0.1612760723

$$$$



 35 40  0  0  0  0  0  0  0  0999 V2000
   10.6466    0.0369   22.8058 C   0  0  0  0  0  0  0  0  0  0  0  0
    9.2084   -0.3231   22.5773 C   0  0  0  0  0  0  0  0  0  0  0  0
    8.6695    0.2878   21.3178 C   0  0  0  0  0  0  0  0  0  0  0  0
    7.2349   -0.1273   21.1781 N   0  0  0  0  0  0  0  0  0  0  0  0
    6.8871   -0.9948   22.3514 C   0  0  0  0  0  0  0  0  0  0  0  0
    5.5538   -1.6298   22.6138 O   0  0  0  0  0  0  0  0  0  0  0  0
    8.1068   -1.1158   23.2162 C   0  0  0  0  0  0  0  0  0  0  0  0
    6.9146   -1.8639   23.7348 C   0  0  0  0  0  0  0  0  0  0  0  0
    7.0151   -2.6411   25.0138 N   0  0  0  0  0  0  0  0  0  0  0  0
    8.3077   -2.6702   25.7742 C   0  0  0  0  0  0  0  0  0  0  0  0
    8.4081   -3.4474   27.0532 O   0  0  0  0  0  0  0  0  0  0  0  0
    9.5000   -1.9220   25.2556 C   0  0  0  0  0  0  0  0  0  0  0  0
   10.7926   -1.9511   26.0160 C   0  0  0  0  0  0  0  0  0  0  0  0
   11.9847   -1.2030   25.4974 C   0  0  0  0  0  0  0  0  0  0  0  0
   11.8843   -0.4257   24.2184 C   0  0  0  0  0  0  0  0  0  0  0  0
   13.0765    0.3224   23.6998 F   0  0  0  0  0  0  0  0  0  0  0  0
   10.5917   -0.3967   23.4580 C   0  0  0  0  0  0  0  0  0  0  0  0
    9.3995   -1.1448   23.9766 C   0  0  0  0  0  0  0  0  0  0  0  0
    6.3104    0.2574   20.0614 C   0  0  0  0  0  0  0  0  0  0  0  0
    6.4432   -0.3974   18.7185 C   0  0  0  0  0  0  0  0  0  0  0  0
    5.5187   -0.0127   17.6017 N   0  0  0  0  0  0  0  0  0  0  0  0
    4.4613    1.0269   17.8279 C   0  0  0  0  0  0  0  0  0  0  0  0
    4.3285    1.6818   19.1709 C   0  0  0  0  0  0  0  0  0  0  0  0
    3.2710    2.7214   19.3970 C   0  0  0  0  0  0  0  0  0  0  0  0
    3.1383    3.3763   20.7400 C   0  0  0  0  0  0  0  0  0  0  0  0
    4.0628    2.9915   21.8567 C   0  0  0  0  0  0  0  0  0  0  0  0
    5.1202    1.9519   21.6305 C   0  0  0  0  0  0  0  0  0  0  0  0
    5.2530    1.2970   20.2876 C   0  0  0  0  0  0  0  0  0  0  0  0
    5.8228   -3.3893   25.5323 C   0  0  0  0  0  0  0  0  0  0  0  0
    5.6956   -4.8629   25.2832 C   0  0  0  0  0  0  0  0  0  0  0  0
    6.5938   -5.6908   24.4126 C   0  0  0  0  0  0  0  0  0  0  0  0
    6.1012   -7.1070   24.4522 C   0  0  0  0  0  0  0  0  0  0  0  0
    4.8985   -7.1544   25.3475 N   0  0  0  0  0  0  0  0  0  0  0  0
    4.6479   -5.7676   25.8610 N   0  0  0  0  0  0  0  0  0  0  0  0
    3.5434   -5.3574   26.7894 C   0  0  0  0  0  0  0  0  0  0  0  0
  2  1  1  0  0  0
  2  3  1  0  0  0
  3  4  1  0  0  0
  4 19  1  0  0  0
 19 20  2  0  0  0
 20 21  1  0  0  0
 21 22  2  0  0  0
 22 23  1  0  0  0
 23 24  2  0  0  0
 24 25  1  0  0  0
 25 26  2  0  0  0
 26 27  1  0  0  0
 27 28  2  0  0  0
  4  5  1  0  0  0
  5  6  2  0  0  0
  5  7  1  0  0  0
  7  8  1  0  0  0
  8  9  1  0  0  0
  9 29  1  0  0  0
 29 30  1  0  0  0
 30 31  2  0  0  0
 31 32  1  0  0  0
 32 33  2  0  0  0
 33 34  1  0  0  0
 34 35  1  0  0  0
  9 10  1  0  0  0
 10 11  2  0  0  0
 10 12  1  0  0  0
 12 13  2  0  0  0
 13 14  1  0  0  0
 14 15  2  0  0  0
 15 16  1  0  0  0
 15 17  1  0  0  0
 17 18  2  0  0  0
  7  2  1  0  0  0
 34 30  1  0  0  0
 18 12  1  0  0  0
 28 19  1  0  0  0
 18  7  1  0  0  0
 28 23  1  0  0  0
M  END
> <minimizedAffinity>
-9.62690

> <CNNscore>
0.2164231837

> <CNNaffinity>
6.4507050514

> <CNN_VS>
1.3960821629

> <CNNaffinity_variance>
0.0764766857

$$$$
