


 35 40  0  0  0  0  0  0  0  0999 V2000
   -7.2758    0.0057  -21.2879 C   0  0  0  0  0  0  0  0  0  0  0  0
   -8.4965   -0.0904  -22.1543 C   0  0  0  0  0  0  0  0  0  0  0  0
   -9.2445    1.2082  -22.2173 C   0  0  0  0  0  0  0  0  0  0  0  0
  -10.4404    1.0119  -23.1012 N   0  0  0  0  0  0  0  0  0  0  0  0
  -10.4314   -0.4081  -23.5846 C   0  0  0  0  0  0  0  0  0  0  0  0
  -11.4458   -1.0364  -24.4935 O   0  0  0  0  0  0  0  0  0  0  0  0
   -9.2301   -1.0894  -22.9993 C   0  0  0  0  0  0  0  0  0  0  0  0
  -10.0667   -1.9740  -23.8753 C   0  0  0  0  0  0  0  0  0  0  0  0
   -9.6687   -3.4033  -24.0963 N   0  0  0  0  0  0  0  0  0  0  0  0
   -8.4341   -3.9479  -23.4413 C   0  0  0  0  0  0  0  0  0  0  0  0
   -8.0362   -5.3772  -23.6623 O   0  0  0  0  0  0  0  0  0  0  0  0
   -7.5974   -3.0633  -22.5653 C   0  0  0  0  0  0  0  0  0  0  0  0
   -6.3628   -3.6079  -21.9103 C   0  0  0  0  0  0  0  0  0  0  0  0
   -5.5262   -2.7233  -21.0343 C   0  0  0  0  0  0  0  0  0  0  0  0
   -5.9241   -1.2940  -20.8133 C   0  0  0  0  0  0  0  0  0  0  0  0
   -5.0874   -0.4094  -19.9372 F   0  0  0  0  0  0  0  0  0  0  0  0
   -7.1587   -0.7494  -21.4683 C   0  0  0  0  0  0  0  0  0  0  0  0
   -7.9954   -1.6340  -22.3443 C   0  0  0  0  0  0  0  0  0  0  0  0
  -11.4653    2.0528  -23.4421 C   0  0  0  0  0  0  0  0  0  0  0  0
  -12.8752    1.9059  -22.9518 C   0  0  0  0  0  0  0  0  0  0  0  0
  -13.9001    2.9468  -23.2926 N   0  0  0  0  0  0  0  0  0  0  0  0
  -13.5149    4.1346  -24.1237 C   0  0  0  0  0  0  0  0  0  0  0  0
  -12.1049    4.2815  -24.6140 C   0  0  0  0  0  0  0  0  0  0  0  0
  -11.7198    5.4694  -25.4451 C   0  0  0  0  0  0  0  0  0  0  0  0
  -10.3098    5.6163  -25.9354 C   0  0  0  0  0  0  0  0  0  0  0  0
   -9.2851    4.5754  -25.5945 C   0  0  0  0  0  0  0  0  0  0  0  0
   -9.6702    3.3876  -24.7634 C   0  0  0  0  0  0  0  0  0  0  0  0
  -11.0801    3.2406  -24.2732 C   0  0  0  0  0  0  0  0  0  0  0  0
  -10.5055   -4.2879  -24.9724 C   0  0  0  0  0  0  0  0  0  0  0  0
   -9.8910   -4.9612  -26.1636 C   0  0  0  0  0  0  0  0  0  0  0  0
  -10.1735   -6.3586  -26.6297 C   0  0  0  0  0  0  0  0  0  0  0  0
   -9.3433   -6.6164  -27.8521 C   0  0  0  0  0  0  0  0  0  0  0  0
   -8.5475   -5.3781  -28.1414 N   0  0  0  0  0  0  0  0  0  0  0  0
   -8.8861   -4.3552  -27.0979 N   0  0  0  0  0  0  0  0  0  0  0  0
   -8.3192   -2.9696  -27.0049 C   0  0  0  0  0  0  0  0  0  0  0  0
  2  1  1  0  0  0
  2  3  1  0  0  0
  3  4  1  0  0  0
  4 19  1  0  0  0
 19 20  2  0  0  0
 20 21  1  0  0  0
 21 22  2  0  0  0
 22 23  1  0  0  0
 23 24  2  0  0  0
 24 25  1  0  0  0
 25 26  2  0  0  0
 26 27  1  0  0  0
 27 28  2  0  0  0
  4  5  1  0  0  0
  5  6  2  0  0  0
  5  7  1  0  0  0
  7  8  1  0  0  0
  8  9  1  0  0  0
  9 29  1  0  0  0
 29 30  1  0  0  0
 30 31  2  0  0  0
 31 32  1  0  0  0
 32 33  2  0  0  0
 33 34  1  0  0  0
 34 35  1  0  0  0
  9 10  1  0  0  0
 10 11  2  0  0  0
 10 12  1  0  0  0
 12 13  2  0  0  0
 13 14  1  0  0  0
 14 15  2  0  0  0
 15 16  1  0  0  0
 15 17  1  0  0  0
 17 18  2  0  0  0
  7  2  1  0  0  0
 34 30  1  0  0  0
 18 12  1  0  0  0
 28 19  1  0  0  0
 18  7  1  0  0  0
 28 23  1  0  0  0
M  END
> <minimizedAffinity>
-9.18454

> <CNNscore>
0.6069499850

> <CNNaffinity>
6.4348311424

> <CNN_VS>
3.9056205750

> <CNNaffinity_variance>
0.1758095324

$$$$



 35 40  0  0  0  0  0  0  0  0999 V2000
   -5.8412   -5.4918  -23.0780 C   0  0  0  0  0  0  0  0  0  0  0  0
   -6.4319   -4.2161  -22.5546 C   0  0  0  0  0  0  0  0  0  0  0  0
   -5.5599   -3.5786  -21.5138 C   0  0  0  0  0  0  0  0  0  0  0  0
   -6.2313   -2.3181  -21.0553 N   0  0  0  0  0  0  0  0  0  0  0  0
   -7.5182   -2.1765  -21.8128 C   0  0  0  0  0  0  0  0  0  0  0  0
   -8.5075   -1.0582  -21.6689 O   0  0  0  0  0  0  0  0  0  0  0  0
   -7.6422   -3.3495  -22.7395 C   0  0  0  0  0  0  0  0  0  0  0  0
   -8.7911   -2.3882  -22.8151 C   0  0  0  0  0  0  0  0  0  0  0  0
   -9.9261   -2.6488  -23.7606 N   0  0  0  0  0  0  0  0  0  0  0  0
   -9.9121   -3.8708  -24.6304 C   0  0  0  0  0  0  0  0  0  0  0  0
  -11.0471   -4.1315  -25.5758 O   0  0  0  0  0  0  0  0  0  0  0  0
   -8.7631   -4.8322  -24.5547 C   0  0  0  0  0  0  0  0  0  0  0  0
   -8.7492   -6.0541  -25.4245 C   0  0  0  0  0  0  0  0  0  0  0  0
   -7.6002   -7.0155  -25.3488 C   0  0  0  0  0  0  0  0  0  0  0  0
   -6.4653   -6.7548  -24.4034 C   0  0  0  0  0  0  0  0  0  0  0  0
   -5.3163   -7.7162  -24.3277 F   0  0  0  0  0  0  0  0  0  0  0  0
   -6.4792   -5.5328  -23.5336 C   0  0  0  0  0  0  0  0  0  0  0  0
   -7.6282   -4.5715  -23.6093 C   0  0  0  0  0  0  0  0  0  0  0  0
   -5.7078   -1.3663  -20.0209 C   0  0  0  0  0  0  0  0  0  0  0  0
   -6.1453   -1.4964  -18.5921 C   0  0  0  0  0  0  0  0  0  0  0  0
   -5.6218   -0.5446  -17.5578 N   0  0  0  0  0  0  0  0  0  0  0  0
   -4.6607    0.5374  -17.9523 C   0  0  0  0  0  0  0  0  0  0  0  0
   -4.2231    0.6675  -19.3811 C   0  0  0  0  0  0  0  0  0  0  0  0
   -3.2620    1.7495  -19.7756 C   0  0  0  0  0  0  0  0  0  0  0  0
   -2.8245    1.8796  -21.2045 C   0  0  0  0  0  0  0  0  0  0  0  0
   -3.3480    0.9278  -22.2388 C   0  0  0  0  0  0  0  0  0  0  0  0
   -4.3091   -0.1542  -21.8443 C   0  0  0  0  0  0  0  0  0  0  0  0
   -4.7467   -0.2843  -20.4155 C   0  0  0  0  0  0  0  0  0  0  0  0
  -11.0751   -1.6874  -23.8362 C   0  0  0  0  0  0  0  0  0  0  0  0
  -10.8146   -0.2171  -23.9777 C   0  0  0  0  0  0  0  0  0  0  0  0
   -9.5128    0.4136  -24.3748 C   0  0  0  0  0  0  0  0  0  0  0  0
   -9.7038    1.9013  -24.3895 C   0  0  0  0  0  0  0  0  0  0  0  0
  -11.1237    2.1901  -24.0015 N   0  0  0  0  0  0  0  0  0  0  0  0
  -11.8102    0.8809  -23.7470 N   0  0  0  0  0  0  0  0  0  0  0  0
  -13.2410    0.7013  -23.3343 C   0  0  0  0  0  0  0  0  0  0  0  0
  2  1  1  0  0  0
  2  3  1  0  0  0
  3  4  1  0  0  0
  4 19  1  0  0  0
 19 20  2  0  0  0
 20 21  1  0  0  0
 21 22  2  0  0  0
 22 23  1  0  0  0
 23 24  2  0  0  0
 24 25  1  0  0  0
 25 26  2  0  0  0
 26 27  1  0  0  0
 27 28  2  0  0  0
  4  5  1  0  0  0
  5  6  2  0  0  0
  5  7  1  0  0  0
  7  8  1  0  0  0
  8  9  1  0  0  0
  9 29  1  0  0  0
 29 30  1  0  0  0
 30 31  2  0  0  0
 31 32  1  0  0  0
 32 33  2  0  0  0
 33 34  1  0  0  0
 34 35  1  0  0  0
  9 10  1  0  0  0
 10 11  2  0  0  0
 10 12  1  0  0  0
 12 13  2  0  0  0
 13 14  1  0  0  0
 14 15  2  0  0  0
 15 16  1  0  0  0
 15 17  1  0  0  0
 17 18  2  0  0  0
  7  2  1  0  0  0
 34 30  1  0  0  0
 18 12  1  0  0  0
 28 19  1  0  0  0
 18  7  1  0  0  0
 28 23  1  0  0  0
M  END
> <minimizedAffinity>
-8.80427

> <CNNscore>
0.3399897814

> <CNNaffinity>
6.2135281563

> <CNN_VS>
2.1125361919

> <CNNaffinity_variance>
0.1593587697

$$$$



 35 40  0  0  0  0  0  0  0  0999 V2000
   -9.8171   -4.0880  -25.0987 C   0  0  0  0  0  0  0  0  0  0  0  0
   -9.7076   -2.8769  -24.2204 C   0  0  0  0  0  0  0  0  0  0  0  0
  -10.7545   -1.8523  -24.5431 C   0  0  0  0  0  0  0  0  0  0  0  0
  -10.5634   -0.6872  -23.6179 N   0  0  0  0  0  0  0  0  0  0  0  0
   -9.3985   -0.9918  -22.7234 C   0  0  0  0  0  0  0  0  0  0  0  0
   -8.8575   -0.0996  -21.6458 O   0  0  0  0  0  0  0  0  0  0  0  0
   -8.8696   -2.3451  -23.0957 C   0  0  0  0  0  0  0  0  0  0  0  0
   -8.1227   -1.6855  -21.9746 C   0  0  0  0  0  0  0  0  0  0  0  0
   -6.9599   -2.3844  -21.3346 N   0  0  0  0  0  0  0  0  0  0  0  0
   -6.5440   -3.7428  -21.8158 C   0  0  0  0  0  0  0  0  0  0  0  0
   -5.3812   -4.4416  -21.1759 O   0  0  0  0  0  0  0  0  0  0  0  0
   -7.2908   -4.4025  -22.9371 C   0  0  0  0  0  0  0  0  0  0  0  0
   -6.8749   -5.7609  -23.4183 C   0  0  0  0  0  0  0  0  0  0  0  0
   -7.6217   -6.4205  -24.5395 C   0  0  0  0  0  0  0  0  0  0  0  0
   -8.7845   -5.7216  -25.1795 C   0  0  0  0  0  0  0  0  0  0  0  0
   -9.5314   -6.3813  -26.3007 F   0  0  0  0  0  0  0  0  0  0  0  0
   -9.2005   -4.3632  -24.6982 C   0  0  0  0  0  0  0  0  0  0  0  0
   -8.4536   -3.7036  -23.5770 C   0  0  0  0  0  0  0  0  0  0  0  0
  -11.3918    0.5631  -23.5918 C   0  0  0  0  0  0  0  0  0  0  0  0
  -12.8241    0.5046  -23.1502 C   0  0  0  0  0  0  0  0  0  0  0  0
  -13.6525    1.7549  -23.1241 N   0  0  0  0  0  0  0  0  0  0  0  0
  -13.0485    3.0635  -23.5396 C   0  0  0  0  0  0  0  0  0  0  0  0
  -11.6162    3.1219  -23.9813 C   0  0  0  0  0  0  0  0  0  0  0  0
  -11.0123    4.4307  -24.3969 C   0  0  0  0  0  0  0  0  0  0  0  0
   -9.5799    4.4890  -24.8385 C   0  0  0  0  0  0  0  0  0  0  0  0
   -8.7516    3.2388  -24.8646 C   0  0  0  0  0  0  0  0  0  0  0  0
   -9.3556    1.9301  -24.4490 C   0  0  0  0  0  0  0  0  0  0  0  0
  -10.7878    1.8717  -24.0074 C   0  0  0  0  0  0  0  0  0  0  0  0
   -6.2130   -1.7247  -20.2134 C   0  0  0  0  0  0  0  0  0  0  0  0
   -5.1638   -0.6959  -20.5142 C   0  0  0  0  0  0  0  0  0  0  0  0
   -4.5082   -0.4679  -21.8440 C   0  0  0  0  0  0  0  0  0  0  0  0
   -3.5251    0.6545  -21.6897 C   0  0  0  0  0  0  0  0  0  0  0  0
   -3.5730    1.1201  -20.2645 N   0  0  0  0  0  0  0  0  0  0  0  0
   -4.5858    0.2855  -19.5381 N   0  0  0  0  0  0  0  0  0  0  0  0
   -4.9556    0.4104  -18.0898 C   0  0  0  0  0  0  0  0  0  0  0  0
  2  1  1  0  0  0
  2  3  1  0  0  0
  3  4  1  0  0  0
  4 19  1  0  0  0
 19 20  2  0  0  0
 20 21  1  0  0  0
 21 22  2  0  0  0
 22 23  1  0  0  0
 23 24  2  0  0  0
 24 25  1  0  0  0
 25 26  2  0  0  0
 26 27  1  0  0  0
 27 28  2  0  0  0
  4  5  1  0  0  0
  5  6  2  0  0  0
  5  7  1  0  0  0
  7  8  1  0  0  0
  8  9  1  0  0  0
  9 29  1  0  0  0
 29 30  1  0  0  0
 30 31  2  0  0  0
 31 32  1  0  0  0
 32 33  2  0  0  0
 33 34  1  0  0  0
 34 35  1  0  0  0
  9 10  1  0  0  0
 10 11  2  0  0  0
 10 12  1  0  0  0
 12 13  2  0  0  0
 13 14  1  0  0  0
 14 15  2  0  0  0
 15 16  1  0  0  0
 15 17  1  0  0  0
 17 18  2  0  0  0
  7  2  1  0  0  0
 34 30  1  0  0  0
 18 12  1  0  0  0
 28 19  1  0  0  0
 18  7  1  0  0  0
 28 23  1  0  0  0
M  END
> <minimizedAffinity>
-8.94597

> <CNNscore>
0.2491221130

> <CNNaffinity>
6.2920579910

> <CNN_VS>
1.5674908161

> <CNNaffinity_variance>
0.1132164747

$$$$



 35 40  0  0  0  0  0  0  0  0999 V2000
   -9.5565   -1.2418  -23.1914 C   0  0  0  0  0  0  0  0  0  0  0  0
   -8.9907    0.1413  -23.3226 C   0  0  0  0  0  0  0  0  0  0  0  0
   -7.4908    0.1388  -23.3041 C   0  0  0  0  0  0  0  0  0  0  0  0
   -7.0233    1.5576  -23.4400 N   0  0  0  0  0  0  0  0  0  0  0  0
   -8.2342    2.4368  -23.5426 C   0  0  0  0  0  0  0  0  0  0  0  0
   -8.2300    3.9294  -23.6916 O   0  0  0  0  0  0  0  0  0  0  0  0
   -9.4502    1.5615  -23.4700 C   0  0  0  0  0  0  0  0  0  0  0  0
   -9.7579    3.0219  -23.6196 C   0  0  0  0  0  0  0  0  0  0  0  0
  -11.1830    3.4855  -23.6832 N   0  0  0  0  0  0  0  0  0  0  0  0
  -12.3005    2.4886  -23.5973 C   0  0  0  0  0  0  0  0  0  0  0  0
  -13.7257    2.9521  -23.6609 O   0  0  0  0  0  0  0  0  0  0  0  0
  -11.9928    1.0281  -23.4477 C   0  0  0  0  0  0  0  0  0  0  0  0
  -13.1103    0.0312  -23.3618 C   0  0  0  0  0  0  0  0  0  0  0  0
  -12.8026   -1.4293  -23.2123 C   0  0  0  0  0  0  0  0  0  0  0  0
  -11.3774   -1.8928  -23.1486 C   0  0  0  0  0  0  0  0  0  0  0  0
  -11.0698   -3.3533  -22.9991 F   0  0  0  0  0  0  0  0  0  0  0  0
  -10.2600   -0.8959  -23.2345 C   0  0  0  0  0  0  0  0  0  0  0  0
  -10.5677    0.5645  -23.3841 C   0  0  0  0  0  0  0  0  0  0  0  0
   -5.5955    2.0165  -23.4685 C   0  0  0  0  0  0  0  0  0  0  0  0
   -5.0312    2.6349  -24.7130 C   0  0  0  0  0  0  0  0  0  0  0  0
   -3.6034    3.0939  -24.7414 N   0  0  0  0  0  0  0  0  0  0  0  0
   -2.7400    2.9344  -23.5252 C   0  0  0  0  0  0  0  0  0  0  0  0
   -3.3044    2.3159  -22.2806 C   0  0  0  0  0  0  0  0  0  0  0  0
   -2.4410    2.1564  -21.0644 C   0  0  0  0  0  0  0  0  0  0  0  0
   -3.0054    1.5380  -19.8199 C   0  0  0  0  0  0  0  0  0  0  0  0
   -4.4331    1.0791  -19.7915 C   0  0  0  0  0  0  0  0  0  0  0  0
   -5.2965    1.2386  -21.0077 C   0  0  0  0  0  0  0  0  0  0  0  0
   -4.7322    1.8570  -22.2522 C   0  0  0  0  0  0  0  0  0  0  0  0
  -11.4907    4.9460  -23.8328 C   0  0  0  0  0  0  0  0  0  0  0  0
  -12.0787    5.4614  -25.1129 C   0  0  0  0  0  0  0  0  0  0  0  0
  -13.4896    5.9315  -25.3087 C   0  0  0  0  0  0  0  0  0  0  0  0
  -13.6419    6.3578  -26.7388 C   0  0  0  0  0  0  0  0  0  0  0  0
  -12.3250    6.1511  -27.4268 N   0  0  0  0  0  0  0  0  0  0  0  0
  -11.3590    5.5970  -26.4219 N   0  0  0  0  0  0  0  0  0  0  0  0
   -9.9249    5.2412  -26.6807 C   0  0  0  0  0  0  0  0  0  0  0  0
  2  1  1  0  0  0
  2  3  1  0  0  0
  3  4  1  0  0  0
  4 19  1  0  0  0
 19 20  2  0  0  0
 20 21  1  0  0  0
 21 22  2  0  0  0
 22 23  1  0  0  0
 23 24  2  0  0  0
 24 25  1  0  0  0
 25 26  2  0  0  0
 26 27  1  0  0  0
 27 28  2  0  0  0
  4  5  1  0  0  0
  5  6  2  0  0  0
  5  7  1  0  0  0
  7  8  1  0  0  0
  8  9  1  0  0  0
  9 29  1  0  0  0
 29 30  1  0  0  0
 30 31  2  0  0  0
 31 32  1  0  0  0
 32 33  2  0  0  0
 33 34  1  0  0  0
 34 35  1  0  0  0
  9 10  1  0  0  0
 10 11  2  0  0  0
 10 12  1  0  0  0
 12 13  2  0  0  0
 13 14  1  0  0  0
 14 15  2  0  0  0
 15 16  1  0  0  0
 15 17  1  0  0  0
 17 18  2  0  0  0
  7  2  1  0  0  0
 34 30  1  0  0  0
 18 12  1  0  0  0
 28 19  1  0  0  0
 18  7  1  0  0  0
 28 23  1  0  0  0
M  END
> <minimizedAffinity>
-7.78564

> <CNNscore>
0.2191855758

> <CNNaffinity>
6.0964646339

> <CNN_VS>
1.3362571001

> <CNNaffinity_variance>
0.0711244047

$$$$



 35 40  0  0  0  0  0  0  0  0999 V2000
   -9.3519   -3.8925  -24.6582 C   0  0  0  0  0  0  0  0  0  0  0  0
   -9.3629   -2.6177  -23.8677 C   0  0  0  0  0  0  0  0  0  0  0  0
  -10.4556   -1.6908  -24.3114 C   0  0  0  0  0  0  0  0  0  0  0  0
  -10.3847   -0.4529  -23.4672 N   0  0  0  0  0  0  0  0  0  0  0  0
   -9.2482   -0.6148  -22.5017 C   0  0  0  0  0  0  0  0  0  0  0  0
   -8.8187    0.3856  -21.4699 O   0  0  0  0  0  0  0  0  0  0  0  0
   -8.6167   -1.9527  -22.7492 C   0  0  0  0  0  0  0  0  0  0  0  0
   -7.9693   -1.1669  -21.6477 C   0  0  0  0  0  0  0  0  0  0  0  0
   -6.7974   -1.7393  -20.9068 N   0  0  0  0  0  0  0  0  0  0  0  0
   -6.2728   -3.0975  -21.2675 C   0  0  0  0  0  0  0  0  0  0  0  0
   -5.1008   -3.6699  -20.5266 O   0  0  0  0  0  0  0  0  0  0  0  0
   -6.9202   -3.8834  -22.3691 C   0  0  0  0  0  0  0  0  0  0  0  0
   -6.3956   -5.2415  -22.7297 C   0  0  0  0  0  0  0  0  0  0  0  0
   -7.0430   -6.0273  -23.8313 C   0  0  0  0  0  0  0  0  0  0  0  0
   -8.2149   -5.4549  -24.5721 C   0  0  0  0  0  0  0  0  0  0  0  0
   -8.8623   -6.2408  -25.6737 F   0  0  0  0  0  0  0  0  0  0  0  0
   -8.7395   -4.0967  -24.2115 C   0  0  0  0  0  0  0  0  0  0  0  0
   -8.0921   -3.3110  -23.1099 C   0  0  0  0  0  0  0  0  0  0  0  0
  -11.2912    0.7377  -23.5703 C   0  0  0  0  0  0  0  0  0  0  0  0
  -12.7205    0.6328  -23.1278 C   0  0  0  0  0  0  0  0  0  0  0  0
  -13.6269    1.8234  -23.2309 N   0  0  0  0  0  0  0  0  0  0  0  0
  -13.1039    3.1191  -23.7766 C   0  0  0  0  0  0  0  0  0  0  0  0
  -11.6745    3.2240  -24.2192 C   0  0  0  0  0  0  0  0  0  0  0  0
  -11.1516    4.5198  -24.7649 C   0  0  0  0  0  0  0  0  0  0  0  0
   -9.7222    4.6247  -25.2074 C   0  0  0  0  0  0  0  0  0  0  0  0
   -8.8158    3.4340  -25.1042 C   0  0  0  0  0  0  0  0  0  0  0  0
   -9.3388    2.1383  -24.5585 C   0  0  0  0  0  0  0  0  0  0  0  0
  -10.7681    2.0334  -24.1160 C   0  0  0  0  0  0  0  0  0  0  0  0
   -6.1500   -0.9535  -19.8052 C   0  0  0  0  0  0  0  0  0  0  0  0
   -4.9800   -0.0643  -20.1059 C   0  0  0  0  0  0  0  0  0  0  0  0
   -4.2847    0.8381  -19.1300 C   0  0  0  0  0  0  0  0  0  0  0  0
   -3.1748    1.5387  -19.8561 C   0  0  0  0  0  0  0  0  0  0  0  0
   -3.1842    1.0693  -21.2808 N   0  0  0  0  0  0  0  0  0  0  0  0
   -4.2999    0.0786  -21.4351 N   0  0  0  0  0  0  0  0  0  0  0  0
   -4.6703   -0.6425  -22.6971 C   0  0  0  0  0  0  0  0  0  0  0  0
  2  1  1  0  0  0
  2  3  1  0  0  0
  3  4  1  0  0  0
  4 19  1  0  0  0
 19 20  2  0  0  0
 20 21  1  0  0  0
 21 22  2  0  0  0
 22 23  1  0  0  0
 23 24  2  0  0  0
 24 25  1  0  0  0
 25 26  2  0  0  0
 26 27  1  0  0  0
 27 28  2  0  0  0
  4  5  1  0  0  0
  5  6  2  0  0  0
  5  7  1  0  0  0
  7  8  1  0  0  0
  8  9  1  0  0  0
  9 29  1  0  0  0
 29 30  1  0  0  0
 30 31  2  0  0  0
 31 32  1  0  0  0
 32 33  2  0  0  0
 33 34  1  0  0  0
 34 35  1  0  0  0
  9 10  1  0  0  0
 10 11  2  0  0  0
 10 12  1  0  0  0
 12 13  2  0  0  0
 13 14  1  0  0  0
 14 15  2  0  0  0
 15 16  1  0  0  0
 15 17  1  0  0  0
 17 18  2  0  0  0
  7  2  1  0  0  0
 34 30  1  0  0  0
 18 12  1  0  0  0
 28 19  1  0  0  0
 18  7  1  0  0  0
 28 23  1  0  0  0
M  END
> <minimizedAffinity>
-9.26268

> <CNNscore>
0.2060322762

> <CNNaffinity>
6.1615529060

> <CNN_VS>
1.2694787979

> <CNNaffinity_variance>
0.1464770734

$$$$



 35 40  0  0  0  0  0  0  0  0999 V2000
   -7.1334   -0.2223  -20.7584 C   0  0  0  0  0  0  0  0  0  0  0  0
   -8.2096   -0.3612  -21.7941 C   0  0  0  0  0  0  0  0  0  0  0  0
   -9.0545    0.8741  -21.8954 C   0  0  0  0  0  0  0  0  0  0  0  0
  -10.0948    0.6388  -22.9501 N   0  0  0  0  0  0  0  0  0  0  0  0
   -9.8928   -0.7419  -23.5006 C   0  0  0  0  0  0  0  0  0  0  0  0
  -10.7122   -1.3906  -24.5766 O   0  0  0  0  0  0  0  0  0  0  0  0
   -8.7277   -1.3599  -22.7861 C   0  0  0  0  0  0  0  0  0  0  0  0
   -9.3534   -2.2513  -23.8175 C   0  0  0  0  0  0  0  0  0  0  0  0
   -8.8030   -3.6265  -24.0536 N   0  0  0  0  0  0  0  0  0  0  0  0
   -7.6269   -4.1104  -23.2583 C   0  0  0  0  0  0  0  0  0  0  0  0
   -7.0765   -5.4856  -23.4944 O   0  0  0  0  0  0  0  0  0  0  0  0
   -7.0011   -3.2190  -22.2268 C   0  0  0  0  0  0  0  0  0  0  0  0
   -5.8250   -3.7029  -21.4315 C   0  0  0  0  0  0  0  0  0  0  0  0
   -5.1993   -2.8115  -20.4000 C   0  0  0  0  0  0  0  0  0  0  0  0
   -5.7497   -1.4362  -20.1640 C   0  0  0  0  0  0  0  0  0  0  0  0
   -5.1239   -0.5448  -19.1325 F   0  0  0  0  0  0  0  0  0  0  0  0
   -6.9258   -0.9523  -20.9593 C   0  0  0  0  0  0  0  0  0  0  0  0
   -7.5515   -1.8437  -21.9907 C   0  0  0  0  0  0  0  0  0  0  0  0
  -11.1516    1.6131  -23.3791 C   0  0  0  0  0  0  0  0  0  0  0  0
  -12.5560    1.4674  -22.8728 C   0  0  0  0  0  0  0  0  0  0  0  0
  -13.6127    2.4417  -23.3017 N   0  0  0  0  0  0  0  0  0  0  0  0
  -13.2651    3.5616  -24.2370 C   0  0  0  0  0  0  0  0  0  0  0  0
  -11.8606    3.7073  -24.7434 C   0  0  0  0  0  0  0  0  0  0  0  0
  -11.5130    4.8274  -25.6787 C   0  0  0  0  0  0  0  0  0  0  0  0
  -10.1085    4.9729  -26.1850 C   0  0  0  0  0  0  0  0  0  0  0  0
   -9.0518    3.9987  -25.7560 C   0  0  0  0  0  0  0  0  0  0  0  0
   -9.3995    2.8787  -24.8207 C   0  0  0  0  0  0  0  0  0  0  0  0
  -10.8038    2.7330  -24.3144 C   0  0  0  0  0  0  0  0  0  0  0  0
   -9.4288   -4.5179  -25.0851 C   0  0  0  0  0  0  0  0  0  0  0  0
   -8.5717   -5.1831  -26.1209 C   0  0  0  0  0  0  0  0  0  0  0  0
   -7.5410   -4.5095  -26.9774 C   0  0  0  0  0  0  0  0  0  0  0  0
   -6.9271   -5.5488  -27.8679 C   0  0  0  0  0  0  0  0  0  0  0  0
   -7.5786   -6.8648  -27.5617 N   0  0  0  0  0  0  0  0  0  0  0  0
   -8.5950   -6.6388  -26.4820 N   0  0  0  0  0  0  0  0  0  0  0  0
   -9.4793   -7.6849  -25.8707 C   0  0  0  0  0  0  0  0  0  0  0  0
  2  1  1  0  0  0
  2  3  1  0  0  0
  3  4  1  0  0  0
  4 19  1  0  0  0
 19 20  2  0  0  0
 20 21  1  0  0  0
 21 22  2  0  0  0
 22 23  1  0  0  0
 23 24  2  0  0  0
 24 25  1  0  0  0
 25 26  2  0  0  0
 26 27  1  0  0  0
 27 28  2  0  0  0
  4  5  1  0  0  0
  5  6  2  0  0  0
  5  7  1  0  0  0
  7  8  1  0  0  0
  8  9  1  0  0  0
  9 29  1  0  0  0
 29 30  1  0  0  0
 30 31  2  0  0  0
 31 32  1  0  0  0
 32 33  2  0  0  0
 33 34  1  0  0  0
 34 35  1  0  0  0
  9 10  1  0  0  0
 10 11  2  0  0  0
 10 12  1  0  0  0
 12 13  2  0  0  0
 13 14  1  0  0  0
 14 15  2  0  0  0
 15 16  1  0  0  0
 15 17  1  0  0  0
 17 18  2  0  0  0
  7  2  1  0  0  0
 34 30  1  0  0  0
 18 12  1  0  0  0
 28 19  1  0  0  0
 18  7  1  0  0  0
 28 23  1  0  0  0
M  END
> <minimizedAffinity>
-8.48507

> <CNNscore>
0.1970072240

> <CNNaffinity>
6.0019750595

> <CNN_VS>
1.1824324131

> <CNNaffinity_variance>
0.1995297819

$$$$



 35 40  0  0  0  0  0  0  0  0999 V2000
  -11.7655   -1.6824  -23.2062 C   0  0  0  0  0  0  0  0  0  0  0  0
  -10.2726   -1.6623  -23.3513 C   0  0  0  0  0  0  0  0  0  0  0  0
   -9.6740   -3.0283  -23.1910 C   0  0  0  0  0  0  0  0  0  0  0  0
   -8.1878   -2.9050  -23.3518 N   0  0  0  0  0  0  0  0  0  0  0  0
   -7.8678   -1.4627  -23.6115 C   0  0  0  0  0  0  0  0  0  0  0  0
   -6.4996   -0.8891  -23.8326 O   0  0  0  0  0  0  0  0  0  0  0  0
   -9.1563   -0.6946  -23.6111 C   0  0  0  0  0  0  0  0  0  0  0  0
   -7.9424    0.1504  -23.8608 C   0  0  0  0  0  0  0  0  0  0  0  0
   -8.0889    1.6268  -24.0815 N   0  0  0  0  0  0  0  0  0  0  0  0
   -9.4492    2.2582  -24.0527 C   0  0  0  0  0  0  0  0  0  0  0  0
   -9.5956    3.7346  -24.2734 O   0  0  0  0  0  0  0  0  0  0  0  0
  -10.6632    1.4131  -23.8030 C   0  0  0  0  0  0  0  0  0  0  0  0
  -12.0235    2.0445  -23.7741 C   0  0  0  0  0  0  0  0  0  0  0  0
  -13.2373    1.1994  -23.5245 C   0  0  0  0  0  0  0  0  0  0  0  0
  -13.0909   -0.2770  -23.3037 C   0  0  0  0  0  0  0  0  0  0  0  0
  -14.3048   -1.1220  -23.0541 F   0  0  0  0  0  0  0  0  0  0  0  0
  -11.7306   -0.9083  -23.3326 C   0  0  0  0  0  0  0  0  0  0  0  0
  -10.5167   -0.0633  -23.5822 C   0  0  0  0  0  0  0  0  0  0  0  0
   -7.1957   -4.0269  -23.2678 C   0  0  0  0  0  0  0  0  0  0  0  0
   -6.3992   -4.2312  -22.0133 C   0  0  0  0  0  0  0  0  0  0  0  0
   -5.4071   -5.3531  -21.9293 N   0  0  0  0  0  0  0  0  0  0  0  0
   -5.2116   -6.2706  -23.0997 C   0  0  0  0  0  0  0  0  0  0  0  0
   -6.0081   -6.0662  -24.3542 C   0  0  0  0  0  0  0  0  0  0  0  0
   -5.8126   -6.9838  -25.5247 C   0  0  0  0  0  0  0  0  0  0  0  0
   -6.6092   -6.7793  -26.7791 C   0  0  0  0  0  0  0  0  0  0  0  0
   -7.6012   -5.6575  -26.8631 C   0  0  0  0  0  0  0  0  0  0  0  0
   -7.7967   -4.7400  -25.6927 C   0  0  0  0  0  0  0  0  0  0  0  0
   -7.0002   -4.9443  -24.4383 C   0  0  0  0  0  0  0  0  0  0  0  0
   -6.8749    2.4719  -24.3312 C   0  0  0  0  0  0  0  0  0  0  0  0
   -6.7678    3.8329  -23.7098 C   0  0  0  0  0  0  0  0  0  0  0  0
   -6.7468    4.1320  -22.2401 C   0  0  0  0  0  0  0  0  0  0  0  0
   -6.6289    5.6177  -22.0710 C   0  0  0  0  0  0  0  0  0  0  0  0
   -6.5771    6.2369  -23.4363 N   0  0  0  0  0  0  0  0  0  0  0  0
   -6.6629    5.1338  -24.4491 N   0  0  0  0  0  0  0  0  0  0  0  0
   -6.6467    5.3022  -25.9395 C   0  0  0  0  0  0  0  0  0  0  0  0
  2  1  1  0  0  0
  2  3  1  0  0  0
  3  4  1  0  0  0
  4 19  1  0  0  0
 19 20  2  0  0  0
 20 21  1  0  0  0
 21 22  2  0  0  0
 22 23  1  0  0  0
 23 24  2  0  0  0
 24 25  1  0  0  0
 25 26  2  0  0  0
 26 27  1  0  0  0
 27 28  2  0  0  0
  4  5  1  0  0  0
  5  6  2  0  0  0
  5  7  1  0  0  0
  7  8  1  0  0  0
  8  9  1  0  0  0
  9 29  1  0  0  0
 29 30  1  0  0  0
 30 31  2  0  0  0
 31 32  1  0  0  0
 32 33  2  0  0  0
 33 34  1  0  0  0
 34 35  1  0  0  0
  9 10  1  0  0  0
 10 11  2  0  0  0
 10 12  1  0  0  0
 12 13  2  0  0  0
 13 14  1  0  0  0
 14 15  2  0  0  0
 15 16  1  0  0  0
 15 17  1  0  0  0
 17 18  2  0  0  0
  7  2  1  0  0  0
 34 30  1  0  0  0
 18 12  1  0  0  0
 28 19  1  0  0  0
 18  7  1  0  0  0
 28 23  1  0  0  0
M  END
> <minimizedAffinity>
-8.00686

> <CNNscore>
0.1813026220

> <CNNaffinity>
6.1662225723

> <CNN_VS>
1.1179523468

> <CNNaffinity_variance>
0.2199463546

$$$$



 35 40  0  0  0  0  0  0  0  0999 V2000
  -10.9452   -2.5328  -24.4764 C   0  0  0  0  0  0  0  0  0  0  0  0
  -10.5134   -1.2034  -23.9321 C   0  0  0  0  0  0  0  0  0  0  0  0
  -11.6202   -0.1919  -23.9762 C   0  0  0  0  0  0  0  0  0  0  0  0
  -11.0940    1.0956  -23.4146 N   0  0  0  0  0  0  0  0  0  0  0  0
   -9.6621    0.8798  -23.0234 C   0  0  0  0  0  0  0  0  0  0  0  0
   -8.7493    1.9050  -22.4185 O   0  0  0  0  0  0  0  0  0  0  0  0
   -9.3032   -0.5410  -23.3432 C   0  0  0  0  0  0  0  0  0  0  0  0
   -8.1803    0.2513  -22.7424 C   0  0  0  0  0  0  0  0  0  0  0  0
   -6.8456   -0.3939  -22.5136 N   0  0  0  0  0  0  0  0  0  0  0  0
   -6.6339   -1.8315  -22.8855 C   0  0  0  0  0  0  0  0  0  0  0  0
   -5.2993   -2.4767  -22.6567 O   0  0  0  0  0  0  0  0  0  0  0  0
   -7.7569   -2.6240  -23.4864 C   0  0  0  0  0  0  0  0  0  0  0  0
   -7.5452   -4.0616  -23.8583 C   0  0  0  0  0  0  0  0  0  0  0  0
   -8.6682   -4.8540  -24.4591 C   0  0  0  0  0  0  0  0  0  0  0  0
  -10.0029   -4.2087  -24.6880 C   0  0  0  0  0  0  0  0  0  0  0  0
  -11.1259   -5.0012  -25.2888 F   0  0  0  0  0  0  0  0  0  0  0  0
  -10.2145   -2.7711  -24.3160 C   0  0  0  0  0  0  0  0  0  0  0  0
   -9.0916   -1.9787  -23.7152 C   0  0  0  0  0  0  0  0  0  0  0  0
  -11.8645    2.3744  -23.2696 C   0  0  0  0  0  0  0  0  0  0  0  0
  -12.9219    2.4972  -22.2129 C   0  0  0  0  0  0  0  0  0  0  0  0
  -13.6924    3.7760  -22.0679 N   0  0  0  0  0  0  0  0  0  0  0  0
  -13.4054    4.9320  -22.9796 C   0  0  0  0  0  0  0  0  0  0  0  0
  -12.3479    4.8092  -24.0364 C   0  0  0  0  0  0  0  0  0  0  0  0
  -12.0609    5.9653  -24.9481 C   0  0  0  0  0  0  0  0  0  0  0  0
  -11.0034    5.8424  -26.0048 C   0  0  0  0  0  0  0  0  0  0  0  0
  -10.2330    4.5636  -26.1497 C   0  0  0  0  0  0  0  0  0  0  0  0
  -10.5200    3.4076  -25.2380 C   0  0  0  0  0  0  0  0  0  0  0  0
  -11.5774    3.5304  -24.1814 C   0  0  0  0  0  0  0  0  0  0  0  0
   -5.7226    0.3986  -21.9127 C   0  0  0  0  0  0  0  0  0  0  0  0
   -5.4801    0.3528  -20.4332 C   0  0  0  0  0  0  0  0  0  0  0  0
   -6.2254   -0.4926  -19.4433 C   0  0  0  0  0  0  0  0  0  0  0  0
   -5.6556   -0.2236  -18.0821 C   0  0  0  0  0  0  0  0  0  0  0  0
   -4.5581    0.7881  -18.2307 N   0  0  0  0  0  0  0  0  0  0  0  0
   -4.4496    1.1443  -19.6838 N   0  0  0  0  0  0  0  0  0  0  0  0
   -3.4808    2.1206  -20.2823 C   0  0  0  0  0  0  0  0  0  0  0  0
  2  1  1  0  0  0
  2  3  1  0  0  0
  3  4  1  0  0  0
  4 19  1  0  0  0
 19 20  2  0  0  0
 20 21  1  0  0  0
 21 22  2  0  0  0
 22 23  1  0  0  0
 23 24  2  0  0  0
 24 25  1  0  0  0
 25 26  2  0  0  0
 26 27  1  0  0  0
 27 28  2  0  0  0
  4  5  1  0  0  0
  5  6  2  0  0  0
  5  7  1  0  0  0
  7  8  1  0  0  0
  8  9  1  0  0  0
  9 29  1  0  0  0
 29 30  1  0  0  0
 30 31  2  0  0  0
 31 32  1  0  0  0
 32 33  2  0  0  0
 33 34  1  0  0  0
 34 35  1  0  0  0
  9 10  1  0  0  0
 10 11  2  0  0  0
 10 12  1  0  0  0
 12 13  2  0  0  0
 13 14  1  0  0  0
 14 15  2  0  0  0
 15 16  1  0  0  0
 15 17  1  0  0  0
 17 18  2  0  0  0
  7  2  1  0  0  0
 34 30  1  0  0  0
 18 12  1  0  0  0
 28 19  1  0  0  0
 18  7  1  0  0  0
 28 23  1  0  0  0
M  END
> <minimizedAffinity>
-8.19325

> <CNNscore>
0.1696790308

> <CNNaffinity>
6.0474214554

> <CNN_VS>
1.0261206627

> <CNNaffinity_variance>
0.2360160053

$$$$



 35 40  0  0  0  0  0  0  0  0999 V2000
   -7.6083   -4.9081  -23.5083 C   0  0  0  0  0  0  0  0  0  0  0  0
   -7.2875   -3.4546  -23.3222 C   0  0  0  0  0  0  0  0  0  0  0  0
   -6.8326   -3.1541  -21.9248 C   0  0  0  0  0  0  0  0  0  0  0  0
   -6.5378   -1.6859  -21.8390 N   0  0  0  0  0  0  0  0  0  0  0  0
   -6.8104   -1.0790  -23.1834 C   0  0  0  0  0  0  0  0  0  0  0  0
   -6.6482    0.3671  -23.5472 O   0  0  0  0  0  0  0  0  0  0  0  0
   -7.2737   -2.1722  -24.1001 C   0  0  0  0  0  0  0  0  0  0  0  0
   -7.2096   -0.8202  -24.7465 C   0  0  0  0  0  0  0  0  0  0  0  0
   -7.5921   -0.6592  -26.1880 N   0  0  0  0  0  0  0  0  0  0  0  0
   -8.0386   -1.8501  -26.9830 C   0  0  0  0  0  0  0  0  0  0  0  0
   -8.4210   -1.6891  -28.4245 O   0  0  0  0  0  0  0  0  0  0  0  0
   -8.1027   -3.2022  -26.3366 C   0  0  0  0  0  0  0  0  0  0  0  0
   -8.5493   -4.3932  -27.1316 C   0  0  0  0  0  0  0  0  0  0  0  0
   -8.6134   -5.7452  -26.4852 C   0  0  0  0  0  0  0  0  0  0  0  0
   -8.2310   -5.9062  -25.0437 C   0  0  0  0  0  0  0  0  0  0  0  0
   -8.2951   -7.2583  -24.3973 F   0  0  0  0  0  0  0  0  0  0  0  0
   -7.7844   -4.7153  -24.2487 C   0  0  0  0  0  0  0  0  0  0  0  0
   -7.7203   -3.3633  -24.8951 C   0  0  0  0  0  0  0  0  0  0  0  0
   -6.0551   -0.9531  -20.6224 C   0  0  0  0  0  0  0  0  0  0  0  0
   -6.8046   -1.0721  -19.3287 C   0  0  0  0  0  0  0  0  0  0  0  0
   -6.3219   -0.3394  -18.1121 N   0  0  0  0  0  0  0  0  0  0  0  0
   -5.0897    0.5124  -18.1894 C   0  0  0  0  0  0  0  0  0  0  0  0
   -4.3402    0.6315  -19.4832 C   0  0  0  0  0  0  0  0  0  0  0  0
   -3.1079    1.4834  -19.5605 C   0  0  0  0  0  0  0  0  0  0  0  0
   -2.3584    1.6024  -20.8544 C   0  0  0  0  0  0  0  0  0  0  0  0
   -2.8411    0.8696  -22.0709 C   0  0  0  0  0  0  0  0  0  0  0  0
   -4.0734    0.0178  -21.9936 C   0  0  0  0  0  0  0  0  0  0  0  0
   -4.8229   -0.1013  -20.6998 C   0  0  0  0  0  0  0  0  0  0  0  0
   -7.5279    0.6929  -26.8344 C   0  0  0  0  0  0  0  0  0  0  0  0
   -8.4916    1.7668  -26.4244 C   0  0  0  0  0  0  0  0  0  0  0  0
   -9.2917    1.7959  -25.1559 C   0  0  0  0  0  0  0  0  0  0  0  0
  -10.1190    3.0472  -25.1583 C   0  0  0  0  0  0  0  0  0  0  0  0
   -9.8301    3.7914  -26.4283 N   0  0  0  0  0  0  0  0  0  0  0  0
   -8.8243    3.0000  -27.2107 N   0  0  0  0  0  0  0  0  0  0  0  0
   -8.2518    3.3760  -28.5452 C   0  0  0  0  0  0  0  0  0  0  0  0
  2  1  1  0  0  0
  2  3  1  0  0  0
  3  4  1  0  0  0
  4 19  1  0  0  0
 19 20  2  0  0  0
 20 21  1  0  0  0
 21 22  2  0  0  0
 22 23  1  0  0  0
 23 24  2  0  0  0
 24 25  1  0  0  0
 25 26  2  0  0  0
 26 27  1  0  0  0
 27 28  2  0  0  0
  4  5  1  0  0  0
  5  6  2  0  0  0
  5  7  1  0  0  0
  7  8  1  0  0  0
  8  9  1  0  0  0
  9 29  1  0  0  0
 29 30  1  0  0  0
 30 31  2  0  0  0
 31 32  1  0  0  0
 32 33  2  0  0  0
 33 34  1  0  0  0
 34 35  1  0  0  0
  9 10  1  0  0  0
 10 11  2  0  0  0
 10 12  1  0  0  0
 12 13  2  0  0  0
 13 14  1  0  0  0
 14 15  2  0  0  0
 15 16  1  0  0  0
 15 17  1  0  0  0
 17 18  2  0  0  0
  7  2  1  0  0  0
 34 30  1  0  0  0
 18 12  1  0  0  0
 28 19  1  0  0  0
 18  7  1  0  0  0
 28 23  1  0  0  0
M  END
> <minimizedAffinity>
-8.22709

> <CNNscore>
0.1662008613

> <CNNaffinity>
6.1159911156

> <CNN_VS>
1.0164829493

> <CNNaffinity_variance>
0.0546698980

$$$$
