


 30 34  0  0  0  0  0  0  0  0999 V2000
    5.5047   -2.5170   21.8794 C   0  0  0  0  0  0  0  0  0  0  0  0
    6.7976   -2.6206   22.6327 N   0  0  0  0  0  0  0  0  0  0  0  0
    8.0988   -1.9844   22.2426 C   0  0  0  0  0  0  0  0  0  0  0  0
    8.3354   -1.1327   21.0307 O   0  0  0  0  0  0  0  0  0  0  0  0
    9.1218   -2.3492   23.2772 N   0  0  0  0  0  0  0  0  0  0  0  0
    8.4529   -3.2110   24.3067 C   0  0  0  0  0  0  0  0  0  0  0  0
    9.1057   -3.8014   25.5213 O   0  0  0  0  0  0  0  0  0  0  0  0
    7.0165   -3.3788   23.9084 C   0  0  0  0  0  0  0  0  0  0  0  0
    7.0075   -4.1936   25.1677 C   0  0  0  0  0  0  0  0  0  0  0  0
    5.5518   -4.4925   24.9639 N   0  0  0  0  0  0  0  0  0  0  0  0
    5.5608   -3.6776   23.7046 C   0  0  0  0  0  0  0  0  0  0  0  0
   10.5610   -1.9266   23.2815 C   0  0  0  0  0  0  0  0  0  0  0  0
   11.1148   -1.1389   22.1314 C   0  0  0  0  0  0  0  0  0  0  0  0
   12.5540   -0.7162   22.1357 N   0  0  0  0  0  0  0  0  0  0  0  0
   13.4394   -1.0812   23.2901 C   0  0  0  0  0  0  0  0  0  0  0  0
   12.8856   -1.8689   24.4403 C   0  0  0  0  0  0  0  0  0  0  0  0
   13.7711   -2.2339   25.5948 C   0  0  0  0  0  0  0  0  0  0  0  0
   13.2173   -3.0215   26.7449 C   0  0  0  0  0  0  0  0  0  0  0  0
   11.7781   -3.4442   26.7406 C   0  0  0  0  0  0  0  0  0  0  0  0
   10.8926   -3.0792   25.5862 C   0  0  0  0  0  0  0  0  0  0  0  0
   11.4464   -2.2916   24.4360 C   0  0  0  0  0  0  0  0  0  0  0  0
    4.5160   -5.2801   25.7102 S   0  0  0  0  0  0  0  0  0  0  0  0
    4.5392   -4.2645   26.8139 O   0  0  0  0  0  0  0  0  0  0  0  0
    4.4928   -6.2957   24.6066 O   0  0  0  0  0  0  0  0  0  0  0  0
    3.4802   -6.0675   26.4566 C   0  0  0  0  0  0  0  0  0  0  0  0
    3.2454   -5.8052   27.9146 C   0  0  0  0  0  0  0  0  0  0  0  0
    2.2096   -6.5926   28.6610 C   0  0  0  0  0  0  0  0  0  0  0  0
    1.4087   -7.6424   27.9493 C   0  0  0  0  0  0  0  0  0  0  0  0
    1.6436   -7.9048   26.4913 C   0  0  0  0  0  0  0  0  0  0  0  0
    2.6793   -7.1173   25.7449 C   0  0  0  0  0  0  0  0  0  0  0  0
  1  2  1  0  0  0
  2  3  1  0  0  0
  3  4  2  0  0  0
  3  5  1  0  0  0
  5 12  1  0  0  0
 12 13  2  0  0  0
 13 14  1  0  0  0
 14 15  2  0  0  0
 15 16  1  0  0  0
 16 17  2  0  0  0
 17 18  1  0  0  0
 18 19  2  0  0  0
 19 20  1  0  0  0
 20 21  2  0  0  0
  5  6  1  0  0  0
  6  7  2  0  0  0
  6  8  1  0  0  0
  8  9  1  0  0  0
  9 10  1  0  0  0
 10 22  1  0  0  0
 22 23  2  0  0  0
 22 24  2  0  0  0
 22 25  1  0  0  0
 25 26  2  0  0  0
 26 27  1  0  0  0
 27 28  2  0  0  0
 28 29  1  0  0  0
 29 30  2  0  0  0
 10 11  1  0  0  0
  8  2  1  0  0  0
 30 25  1  0  0  0
 21 12  1  0  0  0
 11  8  1  0  0  0
 21 16  1  0  0  0
M  END
> <minimizedAffinity>
-7.09147

> <CNNscore>
0.4850422740

> <CNNaffinity>
6.0339283943

> <CNN_VS>
2.9267103672

> <CNNaffinity_variance>
0.1368050128

$$$$



 30 34  0  0  0  0  0  0  0  0999 V2000
    5.2525   -3.9023   21.8946 C   0  0  0  0  0  0  0  0  0  0  0  0
    6.2841   -3.2253   22.7475 N   0  0  0  0  0  0  0  0  0  0  0  0
    7.3818   -3.9057   23.5106 C   0  0  0  0  0  0  0  0  0  0  0  0
    7.6405   -5.3825   23.5546 O   0  0  0  0  0  0  0  0  0  0  0  0
    8.1752   -2.8499   24.2218 N   0  0  0  0  0  0  0  0  0  0  0  0
    7.5680   -1.5171   23.8983 C   0  0  0  0  0  0  0  0  0  0  0  0
    8.0456   -0.1859   24.3981 O   0  0  0  0  0  0  0  0  0  0  0  0
    6.3992   -1.7490   22.9871 C   0  0  0  0  0  0  0  0  0  0  0  0
    6.3265   -0.2541   23.0861 C   0  0  0  0  0  0  0  0  0  0  0  0
    5.1317   -0.2522   22.1793 N   0  0  0  0  0  0  0  0  0  0  0  0
    5.2043   -1.7472   22.0803 C   0  0  0  0  0  0  0  0  0  0  0  0
    9.3668   -3.0857   25.1019 C   0  0  0  0  0  0  0  0  0  0  0  0
    9.2032   -3.8020   26.4096 C   0  0  0  0  0  0  0  0  0  0  0  0
   10.3947   -4.0377   27.2898 N   0  0  0  0  0  0  0  0  0  0  0  0
   11.7498   -3.5571   26.8623 C   0  0  0  0  0  0  0  0  0  0  0  0
   11.9134   -2.8408   25.5545 C   0  0  0  0  0  0  0  0  0  0  0  0
   13.2685   -2.3602   25.1270 C   0  0  0  0  0  0  0  0  0  0  0  0
   13.4320   -1.6439   23.8193 C   0  0  0  0  0  0  0  0  0  0  0  0
   12.2405   -1.4082   22.9391 C   0  0  0  0  0  0  0  0  0  0  0  0
   10.8854   -1.8888   23.3667 C   0  0  0  0  0  0  0  0  0  0  0  0
   10.7219   -2.6051   24.6744 C   0  0  0  0  0  0  0  0  0  0  0  0
    4.2353    0.8062   21.6080 S   0  0  0  0  0  0  0  0  0  0  0  0
    3.5996    0.9941   22.9537 O   0  0  0  0  0  0  0  0  0  0  0  0
    4.8708    0.6183   20.2624 O   0  0  0  0  0  0  0  0  0  0  0  0
    3.3388    1.8646   21.0369 C   0  0  0  0  0  0  0  0  0  0  0  0
    2.6452    2.8323   21.9492 C   0  0  0  0  0  0  0  0  0  0  0  0
    1.7487    3.8907   21.3780 C   0  0  0  0  0  0  0  0  0  0  0  0
    1.5460    3.9813   19.8946 C   0  0  0  0  0  0  0  0  0  0  0  0
    2.2396    3.0136   18.9822 C   0  0  0  0  0  0  0  0  0  0  0  0
    3.1360    1.9552   19.5534 C   0  0  0  0  0  0  0  0  0  0  0  0
  1  2  1  0  0  0
  2  3  1  0  0  0
  3  4  2  0  0  0
  3  5  1  0  0  0
  5 12  1  0  0  0
 12 13  2  0  0  0
 13 14  1  0  0  0
 14 15  2  0  0  0
 15 16  1  0  0  0
 16 17  2  0  0  0
 17 18  1  0  0  0
 18 19  2  0  0  0
 19 20  1  0  0  0
 20 21  2  0  0  0
  5  6  1  0  0  0
  6  7  2  0  0  0
  6  8  1  0  0  0
  8  9  1  0  0  0
  9 10  1  0  0  0
 10 22  1  0  0  0
 22 23  2  0  0  0
 22 24  2  0  0  0
 22 25  1  0  0  0
 25 26  2  0  0  0
 26 27  1  0  0  0
 27 28  2  0  0  0
 28 29  1  0  0  0
 29 30  2  0  0  0
 10 11  1  0  0  0
  8  2  1  0  0  0
 30 25  1  0  0  0
 21 12  1  0  0  0
 11  8  1  0  0  0
 21 16  1  0  0  0
M  END
> <minimizedAffinity>
-7.16556

> <CNNscore>
0.4757583141

> <CNNaffinity>
5.9097504616

> <CNN_VS>
2.8116128445

> <CNNaffinity_variance>
0.2439150810

$$$$



 30 34  0  0  0  0  0  0  0  0999 V2000
    5.3682   -2.9160   21.9626 C   0  0  0  0  0  0  0  0  0  0  0  0
    6.6264   -2.1413   22.2213 N   0  0  0  0  0  0  0  0  0  0  0  0
    7.9425   -2.7162   22.6541 C   0  0  0  0  0  0  0  0  0  0  0  0
    8.2315   -4.1668   22.9042 O   0  0  0  0  0  0  0  0  0  0  0  0
    8.9189   -1.5860   22.7930 N   0  0  0  0  0  0  0  0  0  0  0  0
    8.2062   -0.3126   22.4460 C   0  0  0  0  0  0  0  0  0  0  0  0
    8.8051    1.0626   22.4514 O   0  0  0  0  0  0  0  0  0  0  0  0
    6.7893   -0.6558   22.0927 C   0  0  0  0  0  0  0  0  0  0  0  0
    6.7256    0.8305   21.9010 C   0  0  0  0  0  0  0  0  0  0  0  0
    5.2810    0.7185   21.5129 N   0  0  0  0  0  0  0  0  0  0  0  0
    5.3448   -0.7679   21.7046 C   0  0  0  0  0  0  0  0  0  0  0  0
   10.3556   -1.7079   23.2063 C   0  0  0  0  0  0  0  0  0  0  0  0
   11.4413   -1.2020   22.3034 C   0  0  0  0  0  0  0  0  0  0  0  0
   12.8781   -1.3238   22.7167 N   0  0  0  0  0  0  0  0  0  0  0  0
   13.2292   -1.9515   24.0330 C   0  0  0  0  0  0  0  0  0  0  0  0
   12.1435   -2.4574   24.9360 C   0  0  0  0  0  0  0  0  0  0  0  0
   12.4946   -3.0851   26.2523 C   0  0  0  0  0  0  0  0  0  0  0  0
   11.4090   -3.5910   27.1553 C   0  0  0  0  0  0  0  0  0  0  0  0
    9.9722   -3.4691   26.7420 C   0  0  0  0  0  0  0  0  0  0  0  0
    9.6211   -2.8415   25.4257 C   0  0  0  0  0  0  0  0  0  0  0  0
   10.7067   -2.3356   24.5227 C   0  0  0  0  0  0  0  0  0  0  0  0
    4.2144    1.6902   21.1029 S   0  0  0  0  0  0  0  0  0  0  0  0
    4.1219    1.0230   19.7626 O   0  0  0  0  0  0  0  0  0  0  0  0
    4.3068    2.3574   22.4432 O   0  0  0  0  0  0  0  0  0  0  0  0
    3.1477    2.6618   20.6928 C   0  0  0  0  0  0  0  0  0  0  0  0
    2.0693    2.2343   19.7419 C   0  0  0  0  0  0  0  0  0  0  0  0
    1.0026    3.2059   19.3318 C   0  0  0  0  0  0  0  0  0  0  0  0
    1.0144    4.6050   19.8726 C   0  0  0  0  0  0  0  0  0  0  0  0
    2.0928    5.0325   20.8234 C   0  0  0  0  0  0  0  0  0  0  0  0
    3.1595    4.0609   21.2336 C   0  0  0  0  0  0  0  0  0  0  0  0
  1  2  1  0  0  0
  2  3  1  0  0  0
  3  4  2  0  0  0
  3  5  1  0  0  0
  5 12  1  0  0  0
 12 13  2  0  0  0
 13 14  1  0  0  0
 14 15  2  0  0  0
 15 16  1  0  0  0
 16 17  2  0  0  0
 17 18  1  0  0  0
 18 19  2  0  0  0
 19 20  1  0  0  0
 20 21  2  0  0  0
  5  6  1  0  0  0
  6  7  2  0  0  0
  6  8  1  0  0  0
  8  9  1  0  0  0
  9 10  1  0  0  0
 10 22  1  0  0  0
 22 23  2  0  0  0
 22 24  2  0  0  0
 22 25  1  0  0  0
 25 26  2  0  0  0
 26 27  1  0  0  0
 27 28  2  0  0  0
 28 29  1  0  0  0
 29 30  2  0  0  0
 10 11  1  0  0  0
  8  2  1  0  0  0
 30 25  1  0  0  0
 21 12  1  0  0  0
 11  8  1  0  0  0
 21 16  1  0  0  0
M  END
> <minimizedAffinity>
-7.60148

> <CNNscore>
0.4141369760

> <CNNaffinity>
5.8528151512

> <CNN_VS>
2.4238672256

> <CNNaffinity_variance>
0.1428474188

$$$$



 30 34  0  0  0  0  0  0  0  0999 V2000
    5.2603   -1.4656   24.5420 C   0  0  0  0  0  0  0  0  0  0  0  0
    6.1127   -0.3771   23.9601 N   0  0  0  0  0  0  0  0  0  0  0  0
    7.6041   -0.2670   24.0779 C   0  0  0  0  0  0  0  0  0  0  0  0
    8.5047   -1.2260   24.7983 O   0  0  0  0  0  0  0  0  0  0  0  0
    8.0365    0.9706   23.3489 N   0  0  0  0  0  0  0  0  0  0  0  0
    6.8125    1.6252   22.7805 C   0  0  0  0  0  0  0  0  0  0  0  0
    6.7826    2.8907   21.9756 O   0  0  0  0  0  0  0  0  0  0  0  0
    5.6235    0.7924   23.1582 C   0  0  0  0  0  0  0  0  0  0  0  0
    4.9199    1.8699   22.3876 C   0  0  0  0  0  0  0  0  0  0  0  0
    3.6047    1.1973   22.6480 N   0  0  0  0  0  0  0  0  0  0  0  0
    4.3083    0.1197   23.4186 C   0  0  0  0  0  0  0  0  0  0  0  0
    9.4456    1.4663   23.2122 C   0  0  0  0  0  0  0  0  0  0  0  0
    9.7366    2.9348   23.3069 C   0  0  0  0  0  0  0  0  0  0  0  0
   11.1456    3.4305   23.1703 N   0  0  0  0  0  0  0  0  0  0  0  0
   12.2638    2.4579   22.9389 C   0  0  0  0  0  0  0  0  0  0  0  0
   11.9729    0.9893   22.8442 C   0  0  0  0  0  0  0  0  0  0  0  0
   13.0911    0.0167   22.6128 C   0  0  0  0  0  0  0  0  0  0  0  0
   12.8002   -1.4518   22.5181 C   0  0  0  0  0  0  0  0  0  0  0  0
   11.3911   -1.9475   22.6548 C   0  0  0  0  0  0  0  0  0  0  0  0
   10.2729   -0.9749   22.8861 C   0  0  0  0  0  0  0  0  0  0  0  0
   10.5638    0.4936   22.9808 C   0  0  0  0  0  0  0  0  0  0  0  0
    2.1772    1.4836   22.2873 S   0  0  0  0  0  0  0  0  0  0  0  0
    2.5296    1.4060   20.8313 O   0  0  0  0  0  0  0  0  0  0  0  0
    1.8247    1.5611   23.7432 O   0  0  0  0  0  0  0  0  0  0  0  0
    0.7496    1.7698   21.9264 C   0  0  0  0  0  0  0  0  0  0  0  0
   -0.3443    1.4880   22.9132 C   0  0  0  0  0  0  0  0  0  0  0  0
   -1.7719    1.7742   22.5524 C   0  0  0  0  0  0  0  0  0  0  0  0
   -2.1054    2.3422   21.2047 C   0  0  0  0  0  0  0  0  0  0  0  0
   -1.0115    2.6240   20.2179 C   0  0  0  0  0  0  0  0  0  0  0  0
    0.4161    2.3378   20.5788 C   0  0  0  0  0  0  0  0  0  0  0  0
  1  2  1  0  0  0
  2  3  1  0  0  0
  3  4  2  0  0  0
  3  5  1  0  0  0
  5 12  1  0  0  0
 12 13  2  0  0  0
 13 14  1  0  0  0
 14 15  2  0  0  0
 15 16  1  0  0  0
 16 17  2  0  0  0
 17 18  1  0  0  0
 18 19  2  0  0  0
 19 20  1  0  0  0
 20 21  2  0  0  0
  5  6  1  0  0  0
  6  7  2  0  0  0
  6  8  1  0  0  0
  8  9  1  0  0  0
  9 10  1  0  0  0
 10 22  1  0  0  0
 22 23  2  0  0  0
 22 24  2  0  0  0
 22 25  1  0  0  0
 25 26  2  0  0  0
 26 27  1  0  0  0
 27 28  2  0  0  0
 28 29  1  0  0  0
 29 30  2  0  0  0
 10 11  1  0  0  0
  8  2  1  0  0  0
 30 25  1  0  0  0
 21 12  1  0  0  0
 11  8  1  0  0  0
 21 16  1  0  0  0
M  END
> <minimizedAffinity>
-5.78036

> <CNNscore>
0.3764469922

> <CNNaffinity>
5.5936465263

> <CNN_VS>
2.1057114601

> <CNNaffinity_variance>
0.2101315558

$$$$



 30 34  0  0  0  0  0  0  0  0999 V2000
    5.0515    0.7699   17.3815 C   0  0  0  0  0  0  0  0  0  0  0  0
    5.4317    0.4857   18.8044 N   0  0  0  0  0  0  0  0  0  0  0  0
    6.6500   -0.2622   19.2589 C   0  0  0  0  0  0  0  0  0  0  0  0
    7.7018   -0.8571   18.3702 O   0  0  0  0  0  0  0  0  0  0  0  0
    6.6317   -0.3107   20.7579 N   0  0  0  0  0  0  0  0  0  0  0  0
    5.4022    0.4072   21.2299 C   0  0  0  0  0  0  0  0  0  0  0  0
    4.9871    0.5992   22.6585 O   0  0  0  0  0  0  0  0  0  0  0  0
    4.6605    0.8994   20.0226 C   0  0  0  0  0  0  0  0  0  0  0  0
    3.7377    1.4100   21.0892 C   0  0  0  0  0  0  0  0  0  0  0  0
    2.8407    1.9892   20.0357 N   0  0  0  0  0  0  0  0  0  0  0  0
    3.7636    1.4786   18.9691 C   0  0  0  0  0  0  0  0  0  0  0  0
    7.6621   -0.9627   21.6316 C   0  0  0  0  0  0  0  0  0  0  0  0
    9.0258   -0.3526   21.7663 C   0  0  0  0  0  0  0  0  0  0  0  0
   10.0561   -1.0046   22.6399 N   0  0  0  0  0  0  0  0  0  0  0  0
    9.7228   -2.2666   23.3790 C   0  0  0  0  0  0  0  0  0  0  0  0
    8.3591   -2.8767   23.2444 C   0  0  0  0  0  0  0  0  0  0  0  0
    8.0257   -4.1387   23.9834 C   0  0  0  0  0  0  0  0  0  0  0  0
    6.6621   -4.7487   23.8487 C   0  0  0  0  0  0  0  0  0  0  0  0
    5.6317   -4.0968   22.9751 C   0  0  0  0  0  0  0  0  0  0  0  0
    5.9650   -2.8348   22.2360 C   0  0  0  0  0  0  0  0  0  0  0  0
    7.3287   -2.2247   22.3707 C   0  0  0  0  0  0  0  0  0  0  0  0
    1.5538    2.7598   20.0449 S   0  0  0  0  0  0  0  0  0  0  0  0
    2.2343    3.9042   19.3538 O   0  0  0  0  0  0  0  0  0  0  0  0
    0.8733    1.6156   20.7359 O   0  0  0  0  0  0  0  0  0  0  0  0
    0.2670    3.5306   20.0539 C   0  0  0  0  0  0  0  0  0  0  0  0
   -1.0092    2.8548   20.4598 C   0  0  0  0  0  0  0  0  0  0  0  0
   -2.2960    3.6255   20.4688 C   0  0  0  0  0  0  0  0  0  0  0  0
   -2.3066    5.0720   20.0721 C   0  0  0  0  0  0  0  0  0  0  0  0
   -1.0305    5.7479   19.6662 C   0  0  0  0  0  0  0  0  0  0  0  0
    0.2563    4.9771   19.6572 C   0  0  0  0  0  0  0  0  0  0  0  0
  1  2  1  0  0  0
  2  3  1  0  0  0
  3  4  2  0  0  0
  3  5  1  0  0  0
  5 12  1  0  0  0
 12 13  2  0  0  0
 13 14  1  0  0  0
 14 15  2  0  0  0
 15 16  1  0  0  0
 16 17  2  0  0  0
 17 18  1  0  0  0
 18 19  2  0  0  0
 19 20  1  0  0  0
 20 21  2  0  0  0
  5  6  1  0  0  0
  6  7  2  0  0  0
  6  8  1  0  0  0
  8  9  1  0  0  0
  9 10  1  0  0  0
 10 22  1  0  0  0
 22 23  2  0  0  0
 22 24  2  0  0  0
 22 25  1  0  0  0
 25 26  2  0  0  0
 26 27  1  0  0  0
 27 28  2  0  0  0
 28 29  1  0  0  0
 29 30  2  0  0  0
 10 11  1  0  0  0
  8  2  1  0  0  0
 30 25  1  0  0  0
 21 12  1  0  0  0
 11  8  1  0  0  0
 21 16  1  0  0  0
M  END
> <minimizedAffinity>
-7.83989

> <CNNscore>
0.3627075553

> <CNNaffinity>
5.3952856064

> <CNN_VS>
1.9569108486

> <CNNaffinity_variance>
0.1997217536

$$$$



 30 34  0  0  0  0  0  0  0  0999 V2000
    8.0730    3.5973   23.3572 C   0  0  0  0  0  0  0  0  0  0  0  0
    6.8598    2.7204   23.4529 N   0  0  0  0  0  0  0  0  0  0  0  0
    5.4537    3.1211   23.1178 C   0  0  0  0  0  0  0  0  0  0  0  0
    5.0139    4.4690   22.6283 O   0  0  0  0  0  0  0  0  0  0  0  0
    4.5645    1.9372   23.3583 N   0  0  0  0  0  0  0  0  0  0  0  0
    5.4212    0.8048   23.8419 C   0  0  0  0  0  0  0  0  0  0  0  0
    4.9432   -0.5702   24.2036 O   0  0  0  0  0  0  0  0  0  0  0  0
    6.8397    1.2888   23.9004 C   0  0  0  0  0  0  0  0  0  0  0  0
    7.0521   -0.1182   24.3747 C   0  0  0  0  0  0  0  0  0  0  0  0
    8.5220    0.1490   24.5091 N   0  0  0  0  0  0  0  0  0  0  0  0
    8.3096    1.5561   24.0347 C   0  0  0  0  0  0  0  0  0  0  0  0
    3.0795    1.8934   23.1514 C   0  0  0  0  0  0  0  0  0  0  0  0
    2.1682    1.6242   24.3120 C   0  0  0  0  0  0  0  0  0  0  0  0
    0.6832    1.5804   24.1051 N   0  0  0  0  0  0  0  0  0  0  0  0
    0.1095    1.8058   22.7376 C   0  0  0  0  0  0  0  0  0  0  0  0
    1.0208    2.0750   21.5769 C   0  0  0  0  0  0  0  0  0  0  0  0
    0.4471    2.3004   20.2095 C   0  0  0  0  0  0  0  0  0  0  0  0
    1.3584    2.5696   19.0489 C   0  0  0  0  0  0  0  0  0  0  0  0
    2.8434    2.6134   19.2558 C   0  0  0  0  0  0  0  0  0  0  0  0
    3.4171    2.3880   20.6232 C   0  0  0  0  0  0  0  0  0  0  0  0
    2.5058    2.1188   21.7838 C   0  0  0  0  0  0  0  0  0  0  0  0
    9.7116   -0.6569   24.9395 S   0  0  0  0  0  0  0  0  0  0  0  0
    8.8660   -1.3603   25.9595 O   0  0  0  0  0  0  0  0  0  0  0  0
   10.5573    0.0464   23.9196 O   0  0  0  0  0  0  0  0  0  0  0  0
   10.9012   -1.4629   25.3700 C   0  0  0  0  0  0  0  0  0  0  0  0
   10.7046   -2.7743   26.0710 C   0  0  0  0  0  0  0  0  0  0  0  0
   11.8942   -3.5803   26.5015 C   0  0  0  0  0  0  0  0  0  0  0  0
   13.2803   -3.0749   26.2310 C   0  0  0  0  0  0  0  0  0  0  0  0
   13.4769   -1.7634   25.5299 C   0  0  0  0  0  0  0  0  0  0  0  0
   12.2873   -0.9574   25.0994 C   0  0  0  0  0  0  0  0  0  0  0  0
  1  2  1  0  0  0
  2  3  1  0  0  0
  3  4  2  0  0  0
  3  5  1  0  0  0
  5 12  1  0  0  0
 12 13  2  0  0  0
 13 14  1  0  0  0
 14 15  2  0  0  0
 15 16  1  0  0  0
 16 17  2  0  0  0
 17 18  1  0  0  0
 18 19  2  0  0  0
 19 20  1  0  0  0
 20 21  2  0  0  0
  5  6  1  0  0  0
  6  7  2  0  0  0
  6  8  1  0  0  0
  8  9  1  0  0  0
  9 10  1  0  0  0
 10 22  1  0  0  0
 22 23  2  0  0  0
 22 24  2  0  0  0
 22 25  1  0  0  0
 25 26  2  0  0  0
 26 27  1  0  0  0
 27 28  2  0  0  0
 28 29  1  0  0  0
 29 30  2  0  0  0
 10 11  1  0  0  0
  8  2  1  0  0  0
 30 25  1  0  0  0
 21 12  1  0  0  0
 11  8  1  0  0  0
 21 16  1  0  0  0
M  END
> <minimizedAffinity>
-6.86381

> <CNNscore>
0.3614308834

> <CNNaffinity>
5.4650092125

> <CNN_VS>
1.9752230644

> <CNNaffinity_variance>
0.1037693843

$$$$



 30 34  0  0  0  0  0  0  0  0999 V2000
    5.0662    0.7785   17.3871 C   0  0  0  0  0  0  0  0  0  0  0  0
    5.4438    0.4885   18.8095 N   0  0  0  0  0  0  0  0  0  0  0  0
    6.6625   -0.2589   19.2634 C   0  0  0  0  0  0  0  0  0  0  0  0
    7.7178   -0.8474   18.3745 O   0  0  0  0  0  0  0  0  0  0  0  0
    6.6409   -0.3145   20.7622 N   0  0  0  0  0  0  0  0  0  0  0  0
    5.4087    0.3986   21.2347 C   0  0  0  0  0  0  0  0  0  0  0  0
    4.9898    0.5830   22.6631 O   0  0  0  0  0  0  0  0  0  0  0  0
    4.6688    0.8948   20.0279 C   0  0  0  0  0  0  0  0  0  0  0  0
    3.7424    1.3984   21.0946 C   0  0  0  0  0  0  0  0  0  0  0  0
    2.8465    1.9806   20.0418 N   0  0  0  0  0  0  0  0  0  0  0  0
    3.7730    1.4770   18.9750 C   0  0  0  0  0  0  0  0  0  0  0  0
    7.6706   -0.9683   21.6353 C   0  0  0  0  0  0  0  0  0  0  0  0
    9.0305   -0.3524   21.7811 C   0  0  0  0  0  0  0  0  0  0  0  0
   10.0603   -1.0062   22.6541 N   0  0  0  0  0  0  0  0  0  0  0  0
    9.7301   -2.2759   23.3814 C   0  0  0  0  0  0  0  0  0  0  0  0
    8.3701   -2.8918   23.2356 C   0  0  0  0  0  0  0  0  0  0  0  0
    8.0399   -4.1614   23.9628 C   0  0  0  0  0  0  0  0  0  0  0  0
    6.6800   -4.7773   23.8170 C   0  0  0  0  0  0  0  0  0  0  0  0
    5.6502   -4.1235   22.9439 C   0  0  0  0  0  0  0  0  0  0  0  0
    5.9804   -2.8538   22.2167 C   0  0  0  0  0  0  0  0  0  0  0  0
    7.3404   -2.2380   22.3625 C   0  0  0  0  0  0  0  0  0  0  0  0
    1.5580    2.7484   20.0515 S   0  0  0  0  0  0  0  0  0  0  0  0
    1.0077    1.8117   21.0859 O   0  0  0  0  0  0  0  0  0  0  0  0
    2.1082    3.6851   19.0172 O   0  0  0  0  0  0  0  0  0  0  0  0
    0.2694    3.5161   20.0613 C   0  0  0  0  0  0  0  0  0  0  0  0
    0.2574    4.9662   19.6779 C   0  0  0  0  0  0  0  0  0  0  0  0
   -1.0312    5.7339   19.6877 C   0  0  0  0  0  0  0  0  0  0  0  0
   -2.3079    5.0515   20.0809 C   0  0  0  0  0  0  0  0  0  0  0  0
   -2.2959    3.6014   20.4642 C   0  0  0  0  0  0  0  0  0  0  0  0
   -1.0073    2.8337   20.4544 C   0  0  0  0  0  0  0  0  0  0  0  0
  1  2  1  0  0  0
  2  3  1  0  0  0
  3  4  2  0  0  0
  3  5  1  0  0  0
  5 12  1  0  0  0
 12 13  2  0  0  0
 13 14  1  0  0  0
 14 15  2  0  0  0
 15 16  1  0  0  0
 16 17  2  0  0  0
 17 18  1  0  0  0
 18 19  2  0  0  0
 19 20  1  0  0  0
 20 21  2  0  0  0
  5  6  1  0  0  0
  6  7  2  0  0  0
  6  8  1  0  0  0
  8  9  1  0  0  0
  9 10  1  0  0  0
 10 22  1  0  0  0
 22 23  2  0  0  0
 22 24  2  0  0  0
 22 25  1  0  0  0
 25 26  2  0  0  0
 26 27  1  0  0  0
 27 28  2  0  0  0
 28 29  1  0  0  0
 29 30  2  0  0  0
 10 11  1  0  0  0
  8  2  1  0  0  0
 30 25  1  0  0  0
 21 12  1  0  0  0
 11  8  1  0  0  0
 21 16  1  0  0  0
M  END
> <minimizedAffinity>
-7.87212

> <CNNscore>
0.3461590409

> <CNNaffinity>
5.3879704475

> <CNN_VS>
1.8650946617

> <CNNaffinity_variance>
0.1840936840

$$$$



 30 34  0  0  0  0  0  0  0  0999 V2000
    5.2328   -2.2094   22.6410 C   0  0  0  0  0  0  0  0  0  0  0  0
    6.3640   -1.2616   22.3726 N   0  0  0  0  0  0  0  0  0  0  0  0
    7.8187   -1.5330   22.6180 C   0  0  0  0  0  0  0  0  0  0  0  0
    8.3975   -2.7998   23.1749 O   0  0  0  0  0  0  0  0  0  0  0  0
    8.5929   -0.3152   22.2087 N   0  0  0  0  0  0  0  0  0  0  0  0
    7.6167    0.7088   21.7104 C   0  0  0  0  0  0  0  0  0  0  0  0
    7.9581    2.0775   21.2003 O   0  0  0  0  0  0  0  0  0  0  0  0
    6.2392    0.1239   21.8116 C   0  0  0  0  0  0  0  0  0  0  0  0
    5.8830    1.4666   21.2457 C   0  0  0  0  0  0  0  0  0  0  0  0
    4.4319    1.0871   21.2586 N   0  0  0  0  0  0  0  0  0  0  0  0
    4.7881   -0.2557   21.8246 C   0  0  0  0  0  0  0  0  0  0  0  0
   10.0819   -0.1503   22.2845 C   0  0  0  0  0  0  0  0  0  0  0  0
   10.9797   -1.3302   22.0568 C   0  0  0  0  0  0  0  0  0  0  0  0
   12.4687   -1.1653   22.1326 N   0  0  0  0  0  0  0  0  0  0  0  0
   13.0599    0.1794   22.4361 C   0  0  0  0  0  0  0  0  0  0  0  0
   12.1621    1.3593   22.6638 C   0  0  0  0  0  0  0  0  0  0  0  0
   12.7534    2.7040   22.9673 C   0  0  0  0  0  0  0  0  0  0  0  0
   11.8556    3.8839   23.1951 C   0  0  0  0  0  0  0  0  0  0  0  0
   10.3666    3.7190   23.1193 C   0  0  0  0  0  0  0  0  0  0  0  0
    9.7754    2.3743   22.8158 C   0  0  0  0  0  0  0  0  0  0  0  0
   10.6731    1.1945   22.5880 C   0  0  0  0  0  0  0  0  0  0  0  0
    3.1538    1.7681   20.8676 S   0  0  0  0  0  0  0  0  0  0  0  0
    3.3606    1.3391   19.4451 O   0  0  0  0  0  0  0  0  0  0  0  0
    2.9470    2.1970   22.2900 O   0  0  0  0  0  0  0  0  0  0  0  0
    1.8758    2.4490   20.4765 C   0  0  0  0  0  0  0  0  0  0  0  0
    1.9089    3.8366   19.9080 C   0  0  0  0  0  0  0  0  0  0  0  0
    0.6309    4.5175   19.5168 C   0  0  0  0  0  0  0  0  0  0  0  0
   -0.6803    3.8108   19.6942 C   0  0  0  0  0  0  0  0  0  0  0  0
   -0.7134    2.4231   20.2628 C   0  0  0  0  0  0  0  0  0  0  0  0
    0.5647    1.7422   20.6539 C   0  0  0  0  0  0  0  0  0  0  0  0
  1  2  1  0  0  0
  2  3  1  0  0  0
  3  4  2  0  0  0
  3  5  1  0  0  0
  5 12  1  0  0  0
 12 13  2  0  0  0
 13 14  1  0  0  0
 14 15  2  0  0  0
 15 16  1  0  0  0
 16 17  2  0  0  0
 17 18  1  0  0  0
 18 19  2  0  0  0
 19 20  1  0  0  0
 20 21  2  0  0  0
  5  6  1  0  0  0
  6  7  2  0  0  0
  6  8  1  0  0  0
  8  9  1  0  0  0
  9 10  1  0  0  0
 10 22  1  0  0  0
 22 23  2  0  0  0
 22 24  2  0  0  0
 22 25  1  0  0  0
 25 26  2  0  0  0
 26 27  1  0  0  0
 27 28  2  0  0  0
 28 29  1  0  0  0
 29 30  2  0  0  0
 10 11  1  0  0  0
  8  2  1  0  0  0
 30 25  1  0  0  0
 21 12  1  0  0  0
 11  8  1  0  0  0
 21 16  1  0  0  0
M  END
> <minimizedAffinity>
-6.73276

> <CNNscore>
0.3249708116

> <CNNaffinity>
5.4356765747

> <CNN_VS>
1.7664362192

> <CNNaffinity_variance>
0.1110395938

$$$$



 30 34  0  0  0  0  0  0  0  0999 V2000
    4.9590   -0.9220   26.2508 C   0  0  0  0  0  0  0  0  0  0  0  0
    5.1421   -0.2167   24.9397 N   0  0  0  0  0  0  0  0  0  0  0  0
    4.0686    0.4764   24.1540 C   0  0  0  0  0  0  0  0  0  0  0  0
    2.6237    0.5859   24.5415 O   0  0  0  0  0  0  0  0  0  0  0  0
    4.6938    1.0408   22.9128 N   0  0  0  0  0  0  0  0  0  0  0  0
    6.1536    0.6965   22.9313 C   0  0  0  0  0  0  0  0  0  0  0  0
    7.1597    1.0648   21.8816 O   0  0  0  0  0  0  0  0  0  0  0  0
    6.4307   -0.0807   24.1840 C   0  0  0  0  0  0  0  0  0  0  0  0
    7.8144   -0.0672   23.6053 C   0  0  0  0  0  0  0  0  0  0  0  0
    8.3141   -0.8519   24.7819 N   0  0  0  0  0  0  0  0  0  0  0  0
    6.9303   -0.8654   25.3607 C   0  0  0  0  0  0  0  0  0  0  0  0
    3.9838    1.8138   21.8411 C   0  0  0  0  0  0  0  0  0  0  0  0
    3.0278    2.9079   22.2139 C   0  0  0  0  0  0  0  0  0  0  0  0
    2.3178    3.6809   21.1423 N   0  0  0  0  0  0  0  0  0  0  0  0
    2.5637    3.3598   19.6979 C   0  0  0  0  0  0  0  0  0  0  0  0
    3.5198    2.2656   19.3250 C   0  0  0  0  0  0  0  0  0  0  0  0
    3.7658    1.9445   17.8806 C   0  0  0  0  0  0  0  0  0  0  0  0
    4.7218    0.8504   17.5079 C   0  0  0  0  0  0  0  0  0  0  0  0
    5.4318    0.0775   18.5795 C   0  0  0  0  0  0  0  0  0  0  0  0
    5.1858    0.3986   20.0239 C   0  0  0  0  0  0  0  0  0  0  0  0
    4.2298    1.4926   20.3967 C   0  0  0  0  0  0  0  0  0  0  0  0
    9.6459   -1.3974   25.2048 S   0  0  0  0  0  0  0  0  0  0  0  0
    9.0019   -2.7101   25.5398 O   0  0  0  0  0  0  0  0  0  0  0  0
   10.2900   -0.0848   24.8699 O   0  0  0  0  0  0  0  0  0  0  0  0
   10.9777   -1.9429   25.6278 C   0  0  0  0  0  0  0  0  0  0  0  0
   12.2276   -1.1556   25.3675 C   0  0  0  0  0  0  0  0  0  0  0  0
   13.5593   -1.7011   25.7905 C   0  0  0  0  0  0  0  0  0  0  0  0
   13.6411   -3.0340   26.4736 C   0  0  0  0  0  0  0  0  0  0  0  0
   12.3912   -3.8214   26.7338 C   0  0  0  0  0  0  0  0  0  0  0  0
   11.0595   -3.2758   26.3109 C   0  0  0  0  0  0  0  0  0  0  0  0
  1  2  1  0  0  0
  2  3  1  0  0  0
  3  4  2  0  0  0
  3  5  1  0  0  0
  5 12  1  0  0  0
 12 13  2  0  0  0
 13 14  1  0  0  0
 14 15  2  0  0  0
 15 16  1  0  0  0
 16 17  2  0  0  0
 17 18  1  0  0  0
 18 19  2  0  0  0
 19 20  1  0  0  0
 20 21  2  0  0  0
  5  6  1  0  0  0
  6  7  2  0  0  0
  6  8  1  0  0  0
  8  9  1  0  0  0
  9 10  1  0  0  0
 10 22  1  0  0  0
 22 23  2  0  0  0
 22 24  2  0  0  0
 22 25  1  0  0  0
 25 26  2  0  0  0
 26 27  1  0  0  0
 27 28  2  0  0  0
 28 29  1  0  0  0
 29 30  2  0  0  0
 10 11  1  0  0  0
  8  2  1  0  0  0
 30 25  1  0  0  0
 21 12  1  0  0  0
 11  8  1  0  0  0
 21 16  1  0  0  0
M  END
> <minimizedAffinity>
-6.75241

> <CNNscore>
0.3023557961

> <CNNaffinity>
5.5079131126

> <CNN_VS>
1.6653494835

> <CNNaffinity_variance>
0.2680892348

$$$$
