


 30 34  0  0  0  0  0  0  0  0999 V2000
   -6.0309   -1.9052  -21.6521 C   0  0  0  0  0  0  0  0  0  0  0  0
   -7.3796   -2.1474  -22.2623 N   0  0  0  0  0  0  0  0  0  0  0  0
   -8.6114   -1.3222  -22.0346 C   0  0  0  0  0  0  0  0  0  0  0  0
   -8.7106   -0.1100  -21.1566 O   0  0  0  0  0  0  0  0  0  0  0  0
   -9.7264   -1.9220  -22.8389 N   0  0  0  0  0  0  0  0  0  0  0  0
   -9.1838   -3.1178  -23.5637 C   0  0  0  0  0  0  0  0  0  0  0  0
   -9.9560   -4.0166  -24.4835 O   0  0  0  0  0  0  0  0  0  0  0  0
   -7.7334   -3.2571  -23.2074 C   0  0  0  0  0  0  0  0  0  0  0  0
   -7.8623   -4.4326  -24.1303 C   0  0  0  0  0  0  0  0  0  0  0  0
   -6.4142   -4.7598  -23.9157 N   0  0  0  0  0  0  0  0  0  0  0  0
   -6.2853   -3.5843  -22.9928 C   0  0  0  0  0  0  0  0  0  0  0  0
  -11.1365   -1.4149  -22.9065 C   0  0  0  0  0  0  0  0  0  0  0  0
  -12.2767   -2.3182  -22.5404 C   0  0  0  0  0  0  0  0  0  0  0  0
  -13.6868   -1.8111  -22.6080 N   0  0  0  0  0  0  0  0  0  0  0  0
  -13.9567   -0.4008  -23.0417 C   0  0  0  0  0  0  0  0  0  0  0  0
  -12.8165    0.5025  -23.4078 C   0  0  0  0  0  0  0  0  0  0  0  0
  -13.0864    1.9129  -23.8415 C   0  0  0  0  0  0  0  0  0  0  0  0
  -11.9462    2.8161  -24.2076 C   0  0  0  0  0  0  0  0  0  0  0  0
  -10.5361    2.3091  -24.1400 C   0  0  0  0  0  0  0  0  0  0  0  0
  -10.2662    0.8987  -23.7063 C   0  0  0  0  0  0  0  0  0  0  0  0
  -11.4064   -0.0045  -23.3402 C   0  0  0  0  0  0  0  0  0  0  0  0
   -5.4813   -5.8223  -24.4165 S   0  0  0  0  0  0  0  0  0  0  0  0
   -5.1042   -4.9456  -25.5738 O   0  0  0  0  0  0  0  0  0  0  0  0
   -5.8583   -6.6990  -23.2593 O   0  0  0  0  0  0  0  0  0  0  0  0
   -4.5484   -6.8847  -24.9174 C   0  0  0  0  0  0  0  0  0  0  0  0
   -4.7562   -7.4856  -26.2759 C   0  0  0  0  0  0  0  0  0  0  0  0
   -3.8233   -8.5480  -26.7768 C   0  0  0  0  0  0  0  0  0  0  0  0
   -2.6825   -9.0095  -25.9192 C   0  0  0  0  0  0  0  0  0  0  0  0
   -2.4746   -8.4086  -24.5606 C   0  0  0  0  0  0  0  0  0  0  0  0
   -3.4075   -7.3462  -24.0597 C   0  0  0  0  0  0  0  0  0  0  0  0
  1  2  1  0  0  0
  2  3  1  0  0  0
  3  4  2  0  0  0
  3  5  1  0  0  0
  5 12  1  0  0  0
 12 13  2  0  0  0
 13 14  1  0  0  0
 14 15  2  0  0  0
 15 16  1  0  0  0
 16 17  2  0  0  0
 17 18  1  0  0  0
 18 19  2  0  0  0
 19 20  1  0  0  0
 20 21  2  0  0  0
  5  6  1  0  0  0
  6  7  2  0  0  0
  6  8  1  0  0  0
  8  9  1  0  0  0
  9 10  1  0  0  0
 10 22  1  0  0  0
 22 23  2  0  0  0
 22 24  2  0  0  0
 22 25  1  0  0  0
 25 26  2  0  0  0
 26 27  1  0  0  0
 27 28  2  0  0  0
 28 29  1  0  0  0
 29 30  2  0  0  0
 10 11  1  0  0  0
  8  2  1  0  0  0
 30 25  1  0  0  0
 21 12  1  0  0  0
 11  8  1  0  0  0
 21 16  1  0  0  0
M  END
> <minimizedAffinity>
-7.25132

> <CNNscore>
0.4312886596

> <CNNaffinity>
5.6703810692

> <CNN_VS>
2.4455709457

> <CNNaffinity_variance>
0.0824617371

$$$$



 30 34  0  0  0  0  0  0  0  0999 V2000
   -6.0209   -1.9267  -21.8082 C   0  0  0  0  0  0  0  0  0  0  0  0
   -7.3828   -2.1836  -22.3819 N   0  0  0  0  0  0  0  0  0  0  0  0
   -8.6158   -1.3691  -22.1247 C   0  0  0  0  0  0  0  0  0  0  0  0
   -8.7034   -0.1547  -21.2486 O   0  0  0  0  0  0  0  0  0  0  0  0
   -9.7459   -1.9822  -22.8974 N   0  0  0  0  0  0  0  0  0  0  0  0
   -9.2113   -3.1757  -23.6321 C   0  0  0  0  0  0  0  0  0  0  0  0
   -9.9989   -4.0850  -24.5281 O   0  0  0  0  0  0  0  0  0  0  0  0
   -7.7508   -3.3002  -23.3135 C   0  0  0  0  0  0  0  0  0  0  0  0
   -7.8928   -4.4801  -24.2286 C   0  0  0  0  0  0  0  0  0  0  0  0
   -6.4366   -4.7931  -24.0511 N   0  0  0  0  0  0  0  0  0  0  0  0
   -6.2946   -3.6130  -23.1359 C   0  0  0  0  0  0  0  0  0  0  0  0
  -11.1620   -1.4886  -22.9296 C   0  0  0  0  0  0  0  0  0  0  0  0
  -12.2873   -2.4144  -22.5740 C   0  0  0  0  0  0  0  0  0  0  0  0
  -13.7034   -1.9207  -22.6062 N   0  0  0  0  0  0  0  0  0  0  0  0
  -13.9941   -0.5013  -22.9941 C   0  0  0  0  0  0  0  0  0  0  0  0
  -12.8688    0.4246  -23.3498 C   0  0  0  0  0  0  0  0  0  0  0  0
  -13.1596    1.8441  -23.7377 C   0  0  0  0  0  0  0  0  0  0  0  0
  -12.0343    2.7699  -24.0933 C   0  0  0  0  0  0  0  0  0  0  0  0
  -10.6182    2.2763  -24.0610 C   0  0  0  0  0  0  0  0  0  0  0  0
  -10.3274    0.8568  -23.6732 C   0  0  0  0  0  0  0  0  0  0  0  0
  -11.4527   -0.0690  -23.3175 C   0  0  0  0  0  0  0  0  0  0  0  0
   -5.5072   -5.8487  -24.5725 S   0  0  0  0  0  0  0  0  0  0  0  0
   -5.8646   -6.7346  -23.4159 O   0  0  0  0  0  0  0  0  0  0  0  0
   -5.1499   -4.9629  -25.7291 O   0  0  0  0  0  0  0  0  0  0  0  0
   -4.5779   -6.9044  -25.0939 C   0  0  0  0  0  0  0  0  0  0  0  0
   -3.5181   -7.4781  -24.2007 C   0  0  0  0  0  0  0  0  0  0  0  0
   -2.5888   -8.5338  -24.7221 C   0  0  0  0  0  0  0  0  0  0  0  0
   -2.7192   -9.0158  -26.1366 C   0  0  0  0  0  0  0  0  0  0  0  0
   -3.7789   -8.4420  -27.0297 C   0  0  0  0  0  0  0  0  0  0  0  0
   -4.7083   -7.3864  -26.5084 C   0  0  0  0  0  0  0  0  0  0  0  0
  1  2  1  0  0  0
  2  3  1  0  0  0
  3  4  2  0  0  0
  3  5  1  0  0  0
  5 12  1  0  0  0
 12 13  2  0  0  0
 13 14  1  0  0  0
 14 15  2  0  0  0
 15 16  1  0  0  0
 16 17  2  0  0  0
 17 18  1  0  0  0
 18 19  2  0  0  0
 19 20  1  0  0  0
 20 21  2  0  0  0
  5  6  1  0  0  0
  6  7  2  0  0  0
  6  8  1  0  0  0
  8  9  1  0  0  0
  9 10  1  0  0  0
 10 22  1  0  0  0
 22 23  2  0  0  0
 22 24  2  0  0  0
 22 25  1  0  0  0
 25 26  2  0  0  0
 26 27  1  0  0  0
 27 28  2  0  0  0
 28 29  1  0  0  0
 29 30  2  0  0  0
 10 11  1  0  0  0
  8  2  1  0  0  0
 30 25  1  0  0  0
 21 12  1  0  0  0
 11  8  1  0  0  0
 21 16  1  0  0  0
M  END
> <minimizedAffinity>
-7.28237

> <CNNscore>
0.3982838392

> <CNNaffinity>
5.6401095390

> <CNN_VS>
2.2463645935

> <CNNaffinity_variance>
0.0719953179

$$$$



 30 34  0  0  0  0  0  0  0  0999 V2000
   -5.8889   -2.0450  -24.8171 C   0  0  0  0  0  0  0  0  0  0  0  0
   -6.8347   -1.0152  -24.2742 N   0  0  0  0  0  0  0  0  0  0  0  0
   -8.3147   -0.9640  -24.5135 C   0  0  0  0  0  0  0  0  0  0  0  0
   -9.1085   -1.9338  -25.3378 O   0  0  0  0  0  0  0  0  0  0  0  0
   -8.8614    0.2270  -23.7838 N   0  0  0  0  0  0  0  0  0  0  0  0
   -7.7193    0.9120  -23.0935 C   0  0  0  0  0  0  0  0  0  0  0  0
   -7.8132    2.1478  -22.2485 O   0  0  0  0  0  0  0  0  0  0  0  0
   -6.4668    0.1443  -23.3966 C   0  0  0  0  0  0  0  0  0  0  0  0
   -5.8787    1.2222  -22.5350 C   0  0  0  0  0  0  0  0  0  0  0  0
   -4.5175    0.6157  -22.7054 N   0  0  0  0  0  0  0  0  0  0  0  0
   -5.1056   -0.4623  -23.5670 C   0  0  0  0  0  0  0  0  0  0  0  0
  -10.2979    0.6575  -23.7503 C   0  0  0  0  0  0  0  0  0  0  0  0
  -10.6708    2.0569  -24.1408 C   0  0  0  0  0  0  0  0  0  0  0  0
  -12.1073    2.4874  -24.1073 N   0  0  0  0  0  0  0  0  0  0  0  0
  -13.1709    1.5185  -23.6833 C   0  0  0  0  0  0  0  0  0  0  0  0
  -12.7980    0.1190  -23.2927 C   0  0  0  0  0  0  0  0  0  0  0  0
  -13.8617   -0.8499  -22.8687 C   0  0  0  0  0  0  0  0  0  0  0  0
  -13.4888   -2.2493  -22.4782 C   0  0  0  0  0  0  0  0  0  0  0  0
  -12.0523   -2.6798  -22.5117 C   0  0  0  0  0  0  0  0  0  0  0  0
  -10.9886   -1.7109  -22.9357 C   0  0  0  0  0  0  0  0  0  0  0  0
  -11.3615   -0.3115  -23.3263 C   0  0  0  0  0  0  0  0  0  0  0  0
   -3.1390    0.9488  -22.2167 S   0  0  0  0  0  0  0  0  0  0  0  0
   -3.4808    0.3859  -20.8690 O   0  0  0  0  0  0  0  0  0  0  0  0
   -2.7971    1.5118  -23.5644 O   0  0  0  0  0  0  0  0  0  0  0  0
   -1.7605    1.2820  -21.7279 C   0  0  0  0  0  0  0  0  0  0  0  0
   -0.5796    1.1036  -22.6354 C   0  0  0  0  0  0  0  0  0  0  0  0
    0.7989    1.4368  -22.1466 C   0  0  0  0  0  0  0  0  0  0  0  0
    0.9963    1.9482  -20.7503 C   0  0  0  0  0  0  0  0  0  0  0  0
   -0.1846    2.1265  -19.8429 C   0  0  0  0  0  0  0  0  0  0  0  0
   -1.5631    1.7934  -20.3317 C   0  0  0  0  0  0  0  0  0  0  0  0
  1  2  1  0  0  0
  2  3  1  0  0  0
  3  4  2  0  0  0
  3  5  1  0  0  0
  5 12  1  0  0  0
 12 13  2  0  0  0
 13 14  1  0  0  0
 14 15  2  0  0  0
 15 16  1  0  0  0
 16 17  2  0  0  0
 17 18  1  0  0  0
 18 19  2  0  0  0
 19 20  1  0  0  0
 20 21  2  0  0  0
  5  6  1  0  0  0
  6  7  2  0  0  0
  6  8  1  0  0  0
  8  9  1  0  0  0
  9 10  1  0  0  0
 10 22  1  0  0  0
 22 23  2  0  0  0
 22 24  2  0  0  0
 22 25  1  0  0  0
 25 26  2  0  0  0
 26 27  1  0  0  0
 27 28  2  0  0  0
 28 29  1  0  0  0
 29 30  2  0  0  0
 10 11  1  0  0  0
  8  2  1  0  0  0
 30 25  1  0  0  0
 21 12  1  0  0  0
 11  8  1  0  0  0
 21 16  1  0  0  0
M  END
> <minimizedAffinity>
-6.78750

> <CNNscore>
0.3909158111

> <CNNaffinity>
5.3301334381

> <CNN_VS>
2.0836334229

> <CNNaffinity_variance>
0.1343067586

$$$$



 30 34  0  0  0  0  0  0  0  0999 V2000
   -5.4293   -0.0476  -17.7919 C   0  0  0  0  0  0  0  0  0  0  0  0
   -5.8318   -0.3250  -19.2100 N   0  0  0  0  0  0  0  0  0  0  0  0
   -7.0263   -1.1195  -19.6482 C   0  0  0  0  0  0  0  0  0  0  0  0
   -8.0280   -1.7760  -18.7451 O   0  0  0  0  0  0  0  0  0  0  0  0
   -7.0432   -1.1421  -21.1479 N   0  0  0  0  0  0  0  0  0  0  0  0
   -5.8592   -0.3616  -21.6366 C   0  0  0  0  0  0  0  0  0  0  0  0
   -5.4889   -0.1273  -23.0712 O   0  0  0  0  0  0  0  0  0  0  0  0
   -5.1105    0.1434  -20.4390 C   0  0  0  0  0  0  0  0  0  0  0  0
   -4.2383    0.7129  -21.5183 C   0  0  0  0  0  0  0  0  0  0  0  0
   -3.3421    1.3143  -20.4767 N   0  0  0  0  0  0  0  0  0  0  0  0
   -4.2143    0.7449  -19.3973 C   0  0  0  0  0  0  0  0  0  0  0  0
   -8.0648   -1.8253  -22.0079 C   0  0  0  0  0  0  0  0  0  0  0  0
   -7.9032   -3.2753  -22.3562 C   0  0  0  0  0  0  0  0  0  0  0  0
   -8.9248   -3.9585  -23.2162 N   0  0  0  0  0  0  0  0  0  0  0  0
  -10.1081   -3.1916  -23.7279 C   0  0  0  0  0  0  0  0  0  0  0  0
  -10.2697   -1.7416  -23.3796 C   0  0  0  0  0  0  0  0  0  0  0  0
  -11.4530   -0.9748  -23.8913 C   0  0  0  0  0  0  0  0  0  0  0  0
  -11.6146    0.4752  -23.5430 C   0  0  0  0  0  0  0  0  0  0  0  0
  -10.5930    1.1584  -22.6830 C   0  0  0  0  0  0  0  0  0  0  0  0
   -9.4098    0.3916  -22.1713 C   0  0  0  0  0  0  0  0  0  0  0  0
   -9.2481   -1.0584  -22.5196 C   0  0  0  0  0  0  0  0  0  0  0  0
   -2.0916    2.1424  -20.5032 S   0  0  0  0  0  0  0  0  0  0  0  0
   -1.4187    1.0990  -21.3451 O   0  0  0  0  0  0  0  0  0  0  0  0
   -2.7644    3.1857  -19.6613 O   0  0  0  0  0  0  0  0  0  0  0  0
   -0.8411    2.9703  -20.5298 C   0  0  0  0  0  0  0  0  0  0  0  0
    0.4784    2.3471  -20.1825 C   0  0  0  0  0  0  0  0  0  0  0  0
    1.7290    3.1751  -20.2091 C   0  0  0  0  0  0  0  0  0  0  0  0
    1.6600    4.6261  -20.5829 C   0  0  0  0  0  0  0  0  0  0  0  0
    0.3405    5.2492  -20.9302 C   0  0  0  0  0  0  0  0  0  0  0  0
   -0.9100    4.4213  -20.9036 C   0  0  0  0  0  0  0  0  0  0  0  0
  1  2  1  0  0  0
  2  3  1  0  0  0
  3  4  2  0  0  0
  3  5  1  0  0  0
  5 12  1  0  0  0
 12 13  2  0  0  0
 13 14  1  0  0  0
 14 15  2  0  0  0
 15 16  1  0  0  0
 16 17  2  0  0  0
 17 18  1  0  0  0
 18 19  2  0  0  0
 19 20  1  0  0  0
 20 21  2  0  0  0
  5  6  1  0  0  0
  6  7  2  0  0  0
  6  8  1  0  0  0
  8  9  1  0  0  0
  9 10  1  0  0  0
 10 22  1  0  0  0
 22 23  2  0  0  0
 22 24  2  0  0  0
 22 25  1  0  0  0
 25 26  2  0  0  0
 26 27  1  0  0  0
 27 28  2  0  0  0
 28 29  1  0  0  0
 29 30  2  0  0  0
 10 11  1  0  0  0
  8  2  1  0  0  0
 30 25  1  0  0  0
 21 12  1  0  0  0
 11  8  1  0  0  0
 21 16  1  0  0  0
M  END
> <minimizedAffinity>
-7.85951

> <CNNscore>
0.3736048639

> <CNNaffinity>
5.2182750702

> <CNN_VS>
1.9495729208

> <CNNaffinity_variance>
0.0832206383

$$$$



 30 34  0  0  0  0  0  0  0  0999 V2000
   -5.8958   -2.0876  -25.1865 C   0  0  0  0  0  0  0  0  0  0  0  0
   -6.9643   -1.3797  -24.4073 N   0  0  0  0  0  0  0  0  0  0  0  0
   -8.4441   -1.5510  -24.5836 C   0  0  0  0  0  0  0  0  0  0  0  0
   -9.1150   -2.4603  -25.5700 O   0  0  0  0  0  0  0  0  0  0  0  0
   -9.1350   -0.6533  -23.6003 N   0  0  0  0  0  0  0  0  0  0  0  0
   -8.0823    0.0727  -22.8164 C   0  0  0  0  0  0  0  0  0  0  0  0
   -8.3280    1.0723  -21.7252 O   0  0  0  0  0  0  0  0  0  0  0  0
   -6.7408   -0.3761  -23.3151 C   0  0  0  0  0  0  0  0  0  0  0  0
   -6.2880    0.5922  -22.2629 C   0  0  0  0  0  0  0  0  0  0  0  0
   -4.8580    0.2911  -22.6012 N   0  0  0  0  0  0  0  0  0  0  0  0
   -5.3108   -0.6773  -23.6535 C   0  0  0  0  0  0  0  0  0  0  0  0
  -10.6183   -0.5074  -23.4308 C   0  0  0  0  0  0  0  0  0  0  0  0
  -11.4439   -1.6850  -23.0048 C   0  0  0  0  0  0  0  0  0  0  0  0
  -12.9271   -1.5391  -22.8353 N   0  0  0  0  0  0  0  0  0  0  0  0
  -13.5847   -0.2155  -23.0917 C   0  0  0  0  0  0  0  0  0  0  0  0
  -12.7590    0.9622  -23.5177 C   0  0  0  0  0  0  0  0  0  0  0  0
  -13.4166    2.2857  -23.7742 C   0  0  0  0  0  0  0  0  0  0  0  0
  -12.5910    3.4633  -24.2002 C   0  0  0  0  0  0  0  0  0  0  0  0
  -11.1077    3.3174  -24.3697 C   0  0  0  0  0  0  0  0  0  0  0  0
  -10.4502    1.9938  -24.1133 C   0  0  0  0  0  0  0  0  0  0  0  0
  -11.2758    0.8162  -23.6873 C   0  0  0  0  0  0  0  0  0  0  0  0
   -3.5266    0.7628  -22.0964 S   0  0  0  0  0  0  0  0  0  0  0  0
   -3.3234    1.5429  -23.3615 O   0  0  0  0  0  0  0  0  0  0  0  0
   -3.7296   -0.0171  -20.8314 O   0  0  0  0  0  0  0  0  0  0  0  0
   -2.1951    1.2347  -21.5918 C   0  0  0  0  0  0  0  0  0  0  0  0
   -0.9834    1.1397  -22.4708 C   0  0  0  0  0  0  0  0  0  0  0  0
    0.3480    1.6115  -21.9661 C   0  0  0  0  0  0  0  0  0  0  0  0
    0.4677    2.1783  -20.5825 C   0  0  0  0  0  0  0  0  0  0  0  0
   -0.7440    2.2732  -19.7035 C   0  0  0  0  0  0  0  0  0  0  0  0
   -2.0754    1.8014  -20.2081 C   0  0  0  0  0  0  0  0  0  0  0  0
  1  2  1  0  0  0
  2  3  1  0  0  0
  3  4  2  0  0  0
  3  5  1  0  0  0
  5 12  1  0  0  0
 12 13  2  0  0  0
 13 14  1  0  0  0
 14 15  2  0  0  0
 15 16  1  0  0  0
 16 17  2  0  0  0
 17 18  1  0  0  0
 18 19  2  0  0  0
 19 20  1  0  0  0
 20 21  2  0  0  0
  5  6  1  0  0  0
  6  7  2  0  0  0
  6  8  1  0  0  0
  8  9  1  0  0  0
  9 10  1  0  0  0
 10 22  1  0  0  0
 22 23  2  0  0  0
 22 24  2  0  0  0
 22 25  1  0  0  0
 25 26  2  0  0  0
 26 27  1  0  0  0
 27 28  2  0  0  0
 28 29  1  0  0  0
 29 30  2  0  0  0
 10 11  1  0  0  0
  8  2  1  0  0  0
 30 25  1  0  0  0
 21 12  1  0  0  0
 11  8  1  0  0  0
 21 16  1  0  0  0
M  END
> <minimizedAffinity>
-7.31878

> <CNNscore>
0.3478856087

> <CNNaffinity>
5.2703614235

> <CNN_VS>
1.8334828615

> <CNNaffinity_variance>
0.1170051247

$$$$



 30 34  0  0  0  0  0  0  0  0999 V2000
   -7.1357    0.6260  -21.8289 C   0  0  0  0  0  0  0  0  0  0  0  0
   -7.8137   -0.5295  -22.5037 N   0  0  0  0  0  0  0  0  0  0  0  0
   -7.2814   -1.9283  -22.6032 C   0  0  0  0  0  0  0  0  0  0  0  0
   -5.9775   -2.4172  -22.0455 O   0  0  0  0  0  0  0  0  0  0  0  0
   -8.2817   -2.7523  -23.3584 N   0  0  0  0  0  0  0  0  0  0  0  0
   -9.4323   -1.8628  -23.7255 C   0  0  0  0  0  0  0  0  0  0  0  0
  -10.6571   -2.2747  -24.4872 O   0  0  0  0  0  0  0  0  0  0  0  0
   -9.1431   -0.4890  -23.1973 C   0  0  0  0  0  0  0  0  0  0  0  0
  -10.4760   -0.2210  -23.8308 C   0  0  0  0  0  0  0  0  0  0  0  0
  -10.3944    1.2123  -23.3963 N   0  0  0  0  0  0  0  0  0  0  0  0
   -9.0613    0.9444  -22.7628 C   0  0  0  0  0  0  0  0  0  0  0  0
   -8.1539   -4.2100  -23.6884 C   0  0  0  0  0  0  0  0  0  0  0  0
   -7.7093   -5.1812  -22.6354 C   0  0  0  0  0  0  0  0  0  0  0  0
   -7.5815   -6.6389  -22.9654 N   0  0  0  0  0  0  0  0  0  0  0  0
   -7.8982   -7.1253  -24.3485 C   0  0  0  0  0  0  0  0  0  0  0  0
   -8.3428   -6.1540  -25.4017 C   0  0  0  0  0  0  0  0  0  0  0  0
   -8.6596   -6.6404  -26.7848 C   0  0  0  0  0  0  0  0  0  0  0  0
   -9.1041   -5.6692  -27.8378 C   0  0  0  0  0  0  0  0  0  0  0  0
   -9.2319   -4.2115  -27.5078 C   0  0  0  0  0  0  0  0  0  0  0  0
   -8.9152   -3.7251  -26.1247 C   0  0  0  0  0  0  0  0  0  0  0  0
   -8.4706   -4.6964  -25.0716 C   0  0  0  0  0  0  0  0  0  0  0  0
  -11.2791    2.4154  -23.5370 S   0  0  0  0  0  0  0  0  0  0  0  0
  -10.5429    2.8111  -24.7826 O   0  0  0  0  0  0  0  0  0  0  0  0
  -12.0153    2.0198  -22.2914 O   0  0  0  0  0  0  0  0  0  0  0  0
  -12.1638    3.6186  -23.6777 C   0  0  0  0  0  0  0  0  0  0  0  0
  -12.8097    4.2205  -22.4651 C   0  0  0  0  0  0  0  0  0  0  0  0
  -13.6943    5.4237  -22.6059 C   0  0  0  0  0  0  0  0  0  0  0  0
  -13.9331    6.0249  -23.9592 C   0  0  0  0  0  0  0  0  0  0  0  0
  -13.2871    5.4229  -25.1718 C   0  0  0  0  0  0  0  0  0  0  0  0
  -12.4025    4.2198  -25.0311 C   0  0  0  0  0  0  0  0  0  0  0  0
  1  2  1  0  0  0
  2  3  1  0  0  0
  3  4  2  0  0  0
  3  5  1  0  0  0
  5 12  1  0  0  0
 12 13  2  0  0  0
 13 14  1  0  0  0
 14 15  2  0  0  0
 15 16  1  0  0  0
 16 17  2  0  0  0
 17 18  1  0  0  0
 18 19  2  0  0  0
 19 20  1  0  0  0
 20 21  2  0  0  0
  5  6  1  0  0  0
  6  7  2  0  0  0
  6  8  1  0  0  0
  8  9  1  0  0  0
  9 10  1  0  0  0
 10 22  1  0  0  0
 22 23  2  0  0  0
 22 24  2  0  0  0
 22 25  1  0  0  0
 25 26  2  0  0  0
 26 27  1  0  0  0
 27 28  2  0  0  0
 28 29  1  0  0  0
 29 30  2  0  0  0
 10 11  1  0  0  0
  8  2  1  0  0  0
 30 25  1  0  0  0
 21 12  1  0  0  0
 11  8  1  0  0  0
 21 16  1  0  0  0
M  END
> <minimizedAffinity>
-7.52099

> <CNNscore>
0.3477769792

> <CNNaffinity>
5.5337228775

> <CNN_VS>
1.9245014191

> <CNNaffinity_variance>
0.0977209732

$$$$



 30 34  0  0  0  0  0  0  0  0999 V2000
   -5.2272   -1.0194  -25.5527 C   0  0  0  0  0  0  0  0  0  0  0  0
   -6.3563   -0.6947  -24.6202 N   0  0  0  0  0  0  0  0  0  0  0  0
   -7.7936   -1.0806  -24.8081 C   0  0  0  0  0  0  0  0  0  0  0  0
   -8.3541   -1.8587  -25.9615 O   0  0  0  0  0  0  0  0  0  0  0  0
   -8.5721   -0.5516  -23.6401 N   0  0  0  0  0  0  0  0  0  0  0  0
   -7.6159    0.1611  -22.7303 C   0  0  0  0  0  0  0  0  0  0  0  0
   -7.9673    0.8427  -21.4411 O   0  0  0  0  0  0  0  0  0  0  0  0
   -6.2465    0.0727  -23.3360 C   0  0  0  0  0  0  0  0  0  0  0  0
   -5.9072    0.8550  -22.1021 C   0  0  0  0  0  0  0  0  0  0  0  0
   -4.4670    0.8894  -22.5199 N   0  0  0  0  0  0  0  0  0  0  0  0
   -4.8063    0.1070  -23.7539 C   0  0  0  0  0  0  0  0  0  0  0  0
  -10.0477   -0.7079  -23.4204 C   0  0  0  0  0  0  0  0  0  0  0  0
  -10.6111   -2.0433  -23.0340 C   0  0  0  0  0  0  0  0  0  0  0  0
  -12.0866   -2.1996  -22.8143 N   0  0  0  0  0  0  0  0  0  0  0  0
  -12.9988   -1.0206  -22.9811 C   0  0  0  0  0  0  0  0  0  0  0  0
  -12.4354    0.3148  -23.3675 C   0  0  0  0  0  0  0  0  0  0  0  0
  -13.3475    1.4938  -23.5343 C   0  0  0  0  0  0  0  0  0  0  0  0
  -12.7841    2.8292  -23.9207 C   0  0  0  0  0  0  0  0  0  0  0  0
  -11.3086    2.9855  -24.1404 C   0  0  0  0  0  0  0  0  0  0  0  0
  -10.3964    1.8065  -23.9736 C   0  0  0  0  0  0  0  0  0  0  0  0
  -10.9598    0.4712  -23.5872 C   0  0  0  0  0  0  0  0  0  0  0  0
   -3.2086    1.4669  -21.9429 S   0  0  0  0  0  0  0  0  0  0  0  0
   -3.1925    2.5094  -23.0214 O   0  0  0  0  0  0  0  0  0  0  0  0
   -3.2246    0.4246  -20.8643 O   0  0  0  0  0  0  0  0  0  0  0  0
   -1.9502    2.0445  -21.3660 C   0  0  0  0  0  0  0  0  0  0  0  0
   -1.9718    3.4018  -20.7278 C   0  0  0  0  0  0  0  0  0  0  0  0
   -0.7134    3.9794  -20.1509 C   0  0  0  0  0  0  0  0  0  0  0  0
    0.5666    3.1997  -20.2122 C   0  0  0  0  0  0  0  0  0  0  0  0
    0.5882    1.8424  -20.8503 C   0  0  0  0  0  0  0  0  0  0  0  0
   -0.6702    1.2648  -21.4272 C   0  0  0  0  0  0  0  0  0  0  0  0
  1  2  1  0  0  0
  2  3  1  0  0  0
  3  4  2  0  0  0
  3  5  1  0  0  0
  5 12  1  0  0  0
 12 13  2  0  0  0
 13 14  1  0  0  0
 14 15  2  0  0  0
 15 16  1  0  0  0
 16 17  2  0  0  0
 17 18  1  0  0  0
 18 19  2  0  0  0
 19 20  1  0  0  0
 20 21  2  0  0  0
  5  6  1  0  0  0
  6  7  2  0  0  0
  6  8  1  0  0  0
  8  9  1  0  0  0
  9 10  1  0  0  0
 10 22  1  0  0  0
 22 23  2  0  0  0
 22 24  2  0  0  0
 22 25  1  0  0  0
 25 26  2  0  0  0
 26 27  1  0  0  0
 27 28  2  0  0  0
 28 29  1  0  0  0
 29 30  2  0  0  0
 10 11  1  0  0  0
  8  2  1  0  0  0
 30 25  1  0  0  0
 21 12  1  0  0  0
 11  8  1  0  0  0
 21 16  1  0  0  0
M  END
> <minimizedAffinity>
-7.02861

> <CNNscore>
0.3257974386

> <CNNaffinity>
5.1888961792

> <CNN_VS>
1.6905291080

> <CNNaffinity_variance>
0.0492202565

$$$$



 30 34  0  0  0  0  0  0  0  0999 V2000
   -5.4184   -0.1266  -17.7930 C   0  0  0  0  0  0  0  0  0  0  0  0
   -5.8420   -0.3913  -19.2074 N   0  0  0  0  0  0  0  0  0  0  0  0
   -7.0456   -1.1779  -19.6348 C   0  0  0  0  0  0  0  0  0  0  0  0
   -8.0368   -1.8379  -18.7228 O   0  0  0  0  0  0  0  0  0  0  0  0
   -7.0839   -1.1886  -21.1343 N   0  0  0  0  0  0  0  0  0  0  0  0
   -5.9040   -0.4086  -21.6336 C   0  0  0  0  0  0  0  0  0  0  0  0
   -5.5531   -0.1643  -23.0714 O   0  0  0  0  0  0  0  0  0  0  0  0
   -5.1364    0.0842  -20.4428 C   0  0  0  0  0  0  0  0  0  0  0  0
   -4.2775    0.6590  -21.5298 C   0  0  0  0  0  0  0  0  0  0  0  0
   -3.3643    1.2489  -20.4964 N   0  0  0  0  0  0  0  0  0  0  0  0
   -4.2233    0.6741  -19.4092 C   0  0  0  0  0  0  0  0  0  0  0  0
   -8.1201   -1.8612  -21.9850 C   0  0  0  0  0  0  0  0  0  0  0  0
   -9.4725   -1.2351  -22.1551 C   0  0  0  0  0  0  0  0  0  0  0  0
  -10.5088   -1.9077  -23.0058 N   0  0  0  0  0  0  0  0  0  0  0  0
  -10.1927   -3.2065  -23.6864 C   0  0  0  0  0  0  0  0  0  0  0  0
   -8.8402   -3.8327  -23.5164 C   0  0  0  0  0  0  0  0  0  0  0  0
   -8.5241   -5.1314  -24.1970 C   0  0  0  0  0  0  0  0  0  0  0  0
   -7.1717   -5.7575  -24.0269 C   0  0  0  0  0  0  0  0  0  0  0  0
   -6.1354   -5.0849  -23.1762 C   0  0  0  0  0  0  0  0  0  0  0  0
   -6.4516   -3.7861  -22.4956 C   0  0  0  0  0  0  0  0  0  0  0  0
   -7.8040   -3.1600  -22.6656 C   0  0  0  0  0  0  0  0  0  0  0  0
   -2.1112    2.0726  -20.5342 S   0  0  0  0  0  0  0  0  0  0  0  0
   -2.7478    3.0825  -19.6258 O   0  0  0  0  0  0  0  0  0  0  0  0
   -1.4747    1.0627  -21.4425 O   0  0  0  0  0  0  0  0  0  0  0  0
   -0.8582    2.8963  -20.5718 C   0  0  0  0  0  0  0  0  0  0  0  0
   -0.9394    4.3745  -20.8133 C   0  0  0  0  0  0  0  0  0  0  0  0
    0.3136    5.1982  -20.8509 C   0  0  0  0  0  0  0  0  0  0  0  0
    1.6478    4.5437  -20.6472 C   0  0  0  0  0  0  0  0  0  0  0  0
    1.7290    3.0655  -20.4058 C   0  0  0  0  0  0  0  0  0  0  0  0
    0.4760    2.2418  -20.3681 C   0  0  0  0  0  0  0  0  0  0  0  0
  1  2  1  0  0  0
  2  3  1  0  0  0
  3  4  2  0  0  0
  3  5  1  0  0  0
  5 12  1  0  0  0
 12 13  2  0  0  0
 13 14  1  0  0  0
 14 15  2  0  0  0
 15 16  1  0  0  0
 16 17  2  0  0  0
 17 18  1  0  0  0
 18 19  2  0  0  0
 19 20  1  0  0  0
 20 21  2  0  0  0
  5  6  1  0  0  0
  6  7  2  0  0  0
  6  8  1  0  0  0
  8  9  1  0  0  0
  9 10  1  0  0  0
 10 22  1  0  0  0
 22 23  2  0  0  0
 22 24  2  0  0  0
 22 25  1  0  0  0
 25 26  2  0  0  0
 26 27  1  0  0  0
 27 28  2  0  0  0
 28 29  1  0  0  0
 29 30  2  0  0  0
 10 11  1  0  0  0
  8  2  1  0  0  0
 30 25  1  0  0  0
 21 12  1  0  0  0
 11  8  1  0  0  0
 21 16  1  0  0  0
M  END
> <minimizedAffinity>
-7.67559

> <CNNscore>
0.2901357412

> <CNNaffinity>
5.2278699875

> <CNN_VS>
1.5167919397

> <CNNaffinity_variance>
0.0405906476

$$$$



 30 34  0  0  0  0  0  0  0  0999 V2000
   -6.5090    1.6159  -23.4447 C   0  0  0  0  0  0  0  0  0  0  0  0
   -8.0074    1.6047  -23.5135 N   0  0  0  0  0  0  0  0  0  0  0  0
   -8.8938    2.8093  -23.6282 C   0  0  0  0  0  0  0  0  0  0  0  0
   -8.4374    4.2367  -23.6942 O   0  0  0  0  0  0  0  0  0  0  0  0
  -10.3167    2.3361  -23.6654 N   0  0  0  0  0  0  0  0  0  0  0  0
  -10.3097    0.8389  -23.5736 C   0  0  0  0  0  0  0  0  0  0  0  0
  -11.5178   -0.0502  -23.5754 O   0  0  0  0  0  0  0  0  0  0  0  0
   -8.8825    0.3869  -23.4798 C   0  0  0  0  0  0  0  0  0  0  0  0
   -9.5566   -0.9522  -23.4293 C   0  0  0  0  0  0  0  0  0  0  0  0
   -8.2184   -1.6219  -23.3263 N   0  0  0  0  0  0  0  0  0  0  0  0
   -7.5443   -0.2828  -23.3767 C   0  0  0  0  0  0  0  0  0  0  0  0
  -11.5330    3.2070  -23.7750 C   0  0  0  0  0  0  0  0  0  0  0  0
  -12.5078    3.2805  -22.6374 C   0  0  0  0  0  0  0  0  0  0  0  0
  -13.7241    4.1515  -22.7470 N   0  0  0  0  0  0  0  0  0  0  0  0
  -13.9656    4.9489  -23.9943 C   0  0  0  0  0  0  0  0  0  0  0  0
  -12.9907    4.8755  -25.1320 C   0  0  0  0  0  0  0  0  0  0  0  0
  -13.2322    5.6729  -26.3793 C   0  0  0  0  0  0  0  0  0  0  0  0
  -12.2574    5.5994  -27.5169 C   0  0  0  0  0  0  0  0  0  0  0  0
  -11.0411    4.7285  -27.4072 C   0  0  0  0  0  0  0  0  0  0  0  0
  -10.7996    3.9310  -26.1600 C   0  0  0  0  0  0  0  0  0  0  0  0
  -11.7744    4.0045  -25.0224 C   0  0  0  0  0  0  0  0  0  0  0  0
   -7.7486   -3.0423  -23.2177 S   0  0  0  0  0  0  0  0  0  0  0  0
   -7.3259   -2.7941  -21.8000 O   0  0  0  0  0  0  0  0  0  0  0  0
   -8.1713   -3.2906  -24.6353 O   0  0  0  0  0  0  0  0  0  0  0  0
   -7.2788   -4.4627  -23.1090 C   0  0  0  0  0  0  0  0  0  0  0  0
   -7.9546   -5.5392  -23.9056 C   0  0  0  0  0  0  0  0  0  0  0  0
   -7.4848   -6.9595  -23.7969 C   0  0  0  0  0  0  0  0  0  0  0  0
   -6.3393   -7.3035  -22.8917 C   0  0  0  0  0  0  0  0  0  0  0  0
   -5.6635   -6.2270  -22.0951 C   0  0  0  0  0  0  0  0  0  0  0  0
   -6.1333   -4.8066  -22.2037 C   0  0  0  0  0  0  0  0  0  0  0  0
  1  2  1  0  0  0
  2  3  1  0  0  0
  3  4  2  0  0  0
  3  5  1  0  0  0
  5 12  1  0  0  0
 12 13  2  0  0  0
 13 14  1  0  0  0
 14 15  2  0  0  0
 15 16  1  0  0  0
 16 17  2  0  0  0
 17 18  1  0  0  0
 18 19  2  0  0  0
 19 20  1  0  0  0
 20 21  2  0  0  0
  5  6  1  0  0  0
  6  7  2  0  0  0
  6  8  1  0  0  0
  8  9  1  0  0  0
  9 10  1  0  0  0
 10 22  1  0  0  0
 22 23  2  0  0  0
 22 24  2  0  0  0
 22 25  1  0  0  0
 25 26  2  0  0  0
 26 27  1  0  0  0
 27 28  2  0  0  0
 28 29  1  0  0  0
 29 30  2  0  0  0
 10 11  1  0  0  0
  8  2  1  0  0  0
 30 25  1  0  0  0
 21 12  1  0  0  0
 11  8  1  0  0  0
 21 16  1  0  0  0
M  END
> <minimizedAffinity>
-6.82441

> <CNNscore>
0.2546562850

> <CNNaffinity>
5.3079280853

> <CNN_VS>
1.3516972065

> <CNNaffinity_variance>
0.2000381052

$$$$
