


 42 47  0  0  0  0  0  0  0  0999 V2000
   -7.0826   -0.9178  -23.0765 N   0  0  0  0  0  0  0  0  0  0  0  0
   -7.5265    0.5003  -23.2810 C   0  0  0  0  0  0  0  0  0  0  0  0
   -8.9891    0.8259  -23.3495 C   0  0  0  0  0  0  0  0  0  0  0  0
  -10.4090    1.3013  -23.4382 C   0  0  0  0  0  0  0  0  0  0  0  0
  -11.5416    0.8634  -23.3951 O   0  0  0  0  0  0  0  0  0  0  0  0
  -10.3885    2.7869  -23.6448 N   0  0  0  0  0  0  0  0  0  0  0  0
   -8.9559    3.2297  -23.6838 C   0  0  0  0  0  0  0  0  0  0  0  0
   -8.0910    2.0178  -23.5013 C   0  0  0  0  0  0  0  0  0  0  0  0
  -10.0079   -0.2666  -23.2134 C   0  0  0  0  0  0  0  0  0  0  0  0
  -11.4705    0.0590  -23.2819 C   0  0  0  0  0  0  0  0  0  0  0  0
  -12.4891   -1.0336  -23.1459 C   0  0  0  0  0  0  0  0  0  0  0  0
  -13.9518   -0.7080  -23.2144 Cl  0  0  0  0  0  0  0  0  0  0  0  0
  -12.0452   -2.4517  -22.9413 C   0  0  0  0  0  0  0  0  0  0  0  0
  -10.5826   -2.7773  -22.8729 C   0  0  0  0  0  0  0  0  0  0  0  0
   -9.5639   -1.6848  -23.0089 C   0  0  0  0  0  0  0  0  0  0  0  0
   -8.1013   -2.0103  -22.9404 C   0  0  0  0  0  0  0  0  0  0  0  0
   -7.6573   -3.4285  -22.7359 O   0  0  0  0  0  0  0  0  0  0  0  0
  -11.5897    3.6738  -23.7873 C   0  0  0  0  0  0  0  0  0  0  0  0
  -12.5017    3.8953  -22.6171 C   0  0  0  0  0  0  0  0  0  0  0  0
  -13.7029    4.7822  -22.7596 N   0  0  0  0  0  0  0  0  0  0  0  0
  -13.9921    5.4478  -24.0724 C   0  0  0  0  0  0  0  0  0  0  0  0
  -13.0802    5.2264  -25.2426 C   0  0  0  0  0  0  0  0  0  0  0  0
  -13.3695    5.8920  -26.5554 C   0  0  0  0  0  0  0  0  0  0  0  0
  -12.4575    5.6706  -27.7255 C   0  0  0  0  0  0  0  0  0  0  0  0
  -11.2563    4.7836  -27.5830 C   0  0  0  0  0  0  0  0  0  0  0  0
  -10.9670    4.1180  -26.2702 C   0  0  0  0  0  0  0  0  0  0  0  0
  -11.8790    4.3394  -25.1000 C   0  0  0  0  0  0  0  0  0  0  0  0
   -5.6199   -1.2434  -23.0080 C   0  0  0  0  0  0  0  0  0  0  0  0
   -2.6222    0.3838  -25.0368 C   0  0  0  0  0  0  0  0  0  0  0  0
   -3.5273    0.0118  -23.9000 N   0  0  0  0  0  0  0  0  0  0  0  0
   -4.7147   -0.8714  -24.1448 C   0  0  0  0  0  0  0  0  0  0  0  0
   -4.9970   -1.3826  -25.5265 O   0  0  0  0  0  0  0  0  0  0  0  0
   -3.3420    0.3474  -22.9931 H   0  0  0  0  0  0  0  0  0  0  0  0
   -6.5913    2.0007  -23.4752 C   0  0  0  0  0  0  0  0  0  0  0  0
   -5.8423    3.0574  -22.7188 N   0  0  0  0  0  0  0  0  0  0  0  0
   -6.0434    4.0087  -22.8726 H   0  0  0  0  0  0  0  0  0  0  0  0
   -4.7868    2.6646  -21.7280 C   0  0  0  0  0  0  0  0  0  0  0  0
   -3.4848    3.4082  -21.6848 C   0  0  0  0  0  0  0  0  0  0  0  0
   -2.4294    3.0155  -20.6940 N   0  0  0  0  0  0  0  0  0  0  0  0
   -2.6759    1.8791  -19.7463 C   0  0  0  0  0  0  0  0  0  0  0  0
   -3.9779    1.1356  -19.7895 C   0  0  0  0  0  0  0  0  0  0  0  0
   -5.0333    1.5283  -20.7803 N   0  0  0  0  0  0  0  0  0  0  0  0
 29 30  1  0  0  0
 30 31  1  0  0  0
 31 32  2  0  0  0
 31 28  1  0  0  0
 28  1  1  0  0  0
  1  2  1  0  0  0
  3  2  1  0  0  0
  3  4  1  0  0  0
  4  5  2  0  0  0
  4  6  1  0  0  0
  6 18  1  0  0  0
 18 19  2  0  0  0
 19 20  1  0  0  0
 20 21  2  0  0  0
 21 22  1  0  0  0
 22 23  2  0  0  0
 23 24  1  0  0  0
 24 25  2  0  0  0
 25 26  1  0  0  0
 26 27  2  0  0  0
  6  7  1  0  0  0
  7  8  1  0  0  0
  8 34  1  0  0  0
 34 35  1  0  0  0
 35 37  1  0  0  0
 37 38  2  0  0  0
 38 39  1  0  0  0
 39 40  2  0  0  0
 40 41  1  0  0  0
 41 42  2  0  0  0
  3  9  1  0  0  0
  9 10  2  0  0  0
 10 11  1  0  0  0
 11 12  1  0  0  0
 11 13  2  0  0  0
 13 14  1  0  0  0
 14 15  2  0  0  0
 15 16  1  0  0  0
 16 17  2  0  0  0
 16  1  1  0  0  0
  8  3  1  0  0  0
 42 37  1  0  0  0
 15  9  1  0  0  0
 27 18  1  0  0  0
 27 22  1  0  0  0
 30 33  1  0  0  0
 35 36  1  0  0  0
M  END
> <minimizedAffinity>
-7.82759

> <CNNscore>
0.7150919437

> <CNNaffinity>
6.9794783592

> <CNN_VS>
4.9909687042

> <CNNaffinity_variance>
0.1227431297

$$$$



 42 47  0  0  0  0  0  0  0  0999 V2000
   -5.4289   -6.1300  -23.5500 N   0  0  0  0  0  0  0  0  0  0  0  0
   -6.0197   -4.8689  -22.9927 C   0  0  0  0  0  0  0  0  0  0  0  0
   -7.0738   -4.1302  -23.7629 C   0  0  0  0  0  0  0  0  0  0  0  0
   -8.1298   -3.2880  -24.4151 C   0  0  0  0  0  0  0  0  0  0  0  0
   -8.8044   -3.2583  -25.4252 O   0  0  0  0  0  0  0  0  0  0  0  0
   -8.4209   -2.1271  -23.5108 N   0  0  0  0  0  0  0  0  0  0  0  0
   -7.5448   -2.2520  -22.2996 C   0  0  0  0  0  0  0  0  0  0  0  0
   -6.7123   -3.4899  -22.4554 C   0  0  0  0  0  0  0  0  0  0  0  0
   -7.5371   -4.6527  -25.0904 C   0  0  0  0  0  0  0  0  0  0  0  0
   -8.5912   -3.9140  -25.8606 C   0  0  0  0  0  0  0  0  0  0  0  0
   -9.0545   -4.4364  -27.1882 C   0  0  0  0  0  0  0  0  0  0  0  0
  -10.1087   -3.6978  -27.9584 Cl  0  0  0  0  0  0  0  0  0  0  0  0
   -8.4638   -5.6975  -27.7455 C   0  0  0  0  0  0  0  0  0  0  0  0
   -7.4097   -6.4362  -26.9753 C   0  0  0  0  0  0  0  0  0  0  0  0
   -6.9464   -5.9138  -25.6478 C   0  0  0  0  0  0  0  0  0  0  0  0
   -5.8922   -6.6524  -24.8775 C   0  0  0  0  0  0  0  0  0  0  0  0
   -5.3014   -7.9135  -25.4348 O   0  0  0  0  0  0  0  0  0  0  0  0
   -9.4138   -1.0335  -23.7718 C   0  0  0  0  0  0  0  0  0  0  0  0
   -8.9662    0.2504  -24.4052 C   0  0  0  0  0  0  0  0  0  0  0  0
   -9.9591    1.3440  -24.6662 N   0  0  0  0  0  0  0  0  0  0  0  0
  -11.3996    1.1537  -24.2939 C   0  0  0  0  0  0  0  0  0  0  0  0
  -11.8472   -0.1303  -23.6605 C   0  0  0  0  0  0  0  0  0  0  0  0
  -13.2878   -0.3206  -23.2881 C   0  0  0  0  0  0  0  0  0  0  0  0
  -13.7354   -1.6045  -22.6547 C   0  0  0  0  0  0  0  0  0  0  0  0
  -12.7424   -2.6981  -22.3937 C   0  0  0  0  0  0  0  0  0  0  0  0
  -11.3019   -2.5078  -22.7660 C   0  0  0  0  0  0  0  0  0  0  0  0
  -10.8543   -1.2239  -23.3994 C   0  0  0  0  0  0  0  0  0  0  0  0
   -4.3748   -6.8687  -22.7797 C   0  0  0  0  0  0  0  0  0  0  0  0
   -1.3025   -6.6174  -25.2793 C   0  0  0  0  0  0  0  0  0  0  0  0
   -2.6706   -6.4343  -24.6920 N   0  0  0  0  0  0  0  0  0  0  0  0
   -3.0067   -7.0517  -23.3670 C   0  0  0  0  0  0  0  0  0  0  0  0
   -1.9748   -7.8523  -22.6292 O   0  0  0  0  0  0  0  0  0  0  0  0
   -3.3478   -5.9089  -25.1763 H   0  0  0  0  0  0  0  0  0  0  0  0
   -5.6965   -3.9984  -21.4758 C   0  0  0  0  0  0  0  0  0  0  0  0
   -5.7320   -3.5345  -20.0498 N   0  0  0  0  0  0  0  0  0  0  0  0
   -6.0116   -4.1539  -19.3375 H   0  0  0  0  0  0  0  0  0  0  0  0
   -5.3415   -2.1269  -19.7090 C   0  0  0  0  0  0  0  0  0  0  0  0
   -4.6067   -1.2885  -20.7126 C   0  0  0  0  0  0  0  0  0  0  0  0
   -4.2162    0.1190  -20.3718 N   0  0  0  0  0  0  0  0  0  0  0  0
   -4.5605    0.6884  -19.0274 C   0  0  0  0  0  0  0  0  0  0  0  0
   -5.2953   -0.1500  -18.0238 C   0  0  0  0  0  0  0  0  0  0  0  0
   -5.6858   -1.5576  -18.3646 N   0  0  0  0  0  0  0  0  0  0  0  0
 29 30  1  0  0  0
 30 31  1  0  0  0
 31 32  2  0  0  0
 31 28  1  0  0  0
 28  1  1  0  0  0
  1  2  1  0  0  0
  3  2  1  0  0  0
  3  4  1  0  0  0
  4  5  2  0  0  0
  4  6  1  0  0  0
  6 18  1  0  0  0
 18 19  2  0  0  0
 19 20  1  0  0  0
 20 21  2  0  0  0
 21 22  1  0  0  0
 22 23  2  0  0  0
 23 24  1  0  0  0
 24 25  2  0  0  0
 25 26  1  0  0  0
 26 27  2  0  0  0
  6  7  1  0  0  0
  7  8  1  0  0  0
  8 34  1  0  0  0
 34 35  1  0  0  0
 35 37  1  0  0  0
 37 38  2  0  0  0
 38 39  1  0  0  0
 39 40  2  0  0  0
 40 41  1  0  0  0
 41 42  2  0  0  0
  3  9  1  0  0  0
  9 10  2  0  0  0
 10 11  1  0  0  0
 11 12  1  0  0  0
 11 13  2  0  0  0
 13 14  1  0  0  0
 14 15  2  0  0  0
 15 16  1  0  0  0
 16 17  2  0  0  0
 16  1  1  0  0  0
  8  3  1  0  0  0
 42 37  1  0  0  0
 15  9  1  0  0  0
 27 18  1  0  0  0
 27 22  1  0  0  0
 30 33  1  0  0  0
 35 36  1  0  0  0
M  END
> <minimizedAffinity>
-8.20532

> <CNNscore>
0.3998241425

> <CNNaffinity>
7.0243253708

> <CNN_VS>
2.8084948063

> <CNNaffinity_variance>
0.1174936891

$$$$



 42 47  0  0  0  0  0  0  0  0999 V2000
   -9.5504    2.8621  -24.5170 N   0  0  0  0  0  0  0  0  0  0  0  0
   -8.5801    1.7205  -24.5897 C   0  0  0  0  0  0  0  0  0  0  0  0
   -9.0356    0.3276  -24.2700 C   0  0  0  0  0  0  0  0  0  0  0  0
   -9.3441   -1.1115  -23.9802 C   0  0  0  0  0  0  0  0  0  0  0  0
  -10.2766   -1.8141  -23.6439 O   0  0  0  0  0  0  0  0  0  0  0  0
   -8.0857   -1.9039  -24.1763 N   0  0  0  0  0  0  0  0  0  0  0  0
   -6.9995   -0.9546  -24.5874 C   0  0  0  0  0  0  0  0  0  0  0  0
   -7.5866    0.4245  -24.6453 C   0  0  0  0  0  0  0  0  0  0  0  0
  -10.4615    0.0762  -23.8777 C   0  0  0  0  0  0  0  0  0  0  0  0
  -10.9170   -1.3167  -23.5580 C   0  0  0  0  0  0  0  0  0  0  0  0
  -12.3428   -1.5680  -23.1657 C   0  0  0  0  0  0  0  0  0  0  0  0
  -12.7984   -2.9609  -22.8460 Cl  0  0  0  0  0  0  0  0  0  0  0  0
  -13.3131   -0.4263  -23.0930 C   0  0  0  0  0  0  0  0  0  0  0  0
  -12.8575    0.9666  -23.4127 C   0  0  0  0  0  0  0  0  0  0  0  0
  -11.4317    1.2179  -23.8050 C   0  0  0  0  0  0  0  0  0  0  0  0
  -10.9761    2.6108  -24.1247 C   0  0  0  0  0  0  0  0  0  0  0  0
  -11.9464    3.7525  -24.0520 O   0  0  0  0  0  0  0  0  0  0  0  0
   -7.9392   -3.3855  -23.9935 C   0  0  0  0  0  0  0  0  0  0  0  0
   -7.3088   -3.9285  -22.7454 C   0  0  0  0  0  0  0  0  0  0  0  0
   -7.1624   -5.4101  -22.5626 N   0  0  0  0  0  0  0  0  0  0  0  0
   -7.6463   -6.3487  -23.6279 C   0  0  0  0  0  0  0  0  0  0  0  0
   -8.2767   -5.8057  -24.8760 C   0  0  0  0  0  0  0  0  0  0  0  0
   -8.7607   -6.7443  -25.9413 C   0  0  0  0  0  0  0  0  0  0  0  0
   -9.3910   -6.2012  -27.1894 C   0  0  0  0  0  0  0  0  0  0  0  0
   -9.5375   -4.7196  -27.3722 C   0  0  0  0  0  0  0  0  0  0  0  0
   -9.0535   -3.7811  -26.3069 C   0  0  0  0  0  0  0  0  0  0  0  0
   -8.4232   -4.3241  -25.0588 C   0  0  0  0  0  0  0  0  0  0  0  0
   -9.0948    4.2551  -24.8367 C   0  0  0  0  0  0  0  0  0  0  0  0
   -6.9523    5.6247  -21.7897 C   0  0  0  0  0  0  0  0  0  0  0  0
   -8.0754    5.0058  -22.5679 N   0  0  0  0  0  0  0  0  0  0  0  0
   -7.9716    4.8740  -24.0585 C   0  0  0  0  0  0  0  0  0  0  0  0
   -6.7447    5.3610  -24.7709 O   0  0  0  0  0  0  0  0  0  0  0  0
   -8.8807    4.6862  -22.1004 H   0  0  0  0  0  0  0  0  0  0  0  0
   -6.8533    1.6801  -25.0138 C   0  0  0  0  0  0  0  0  0  0  0  0
   -6.1175    2.4553  -23.9615 N   0  0  0  0  0  0  0  0  0  0  0  0
   -5.9715    3.4223  -24.0744 H   0  0  0  0  0  0  0  0  0  0  0  0
   -5.6043    1.7572  -22.7370 C   0  0  0  0  0  0  0  0  0  0  0  0
   -4.7926    2.5133  -21.7274 C   0  0  0  0  0  0  0  0  0  0  0  0
   -4.2793    1.8153  -20.5030 N   0  0  0  0  0  0  0  0  0  0  0  0
   -4.5777    0.3610  -20.2882 C   0  0  0  0  0  0  0  0  0  0  0  0
   -5.3894   -0.3951  -21.2978 C   0  0  0  0  0  0  0  0  0  0  0  0
   -5.9027    0.3030  -22.5222 N   0  0  0  0  0  0  0  0  0  0  0  0
 29 30  1  0  0  0
 30 31  1  0  0  0
 31 32  2  0  0  0
 31 28  1  0  0  0
 28  1  1  0  0  0
  1  2  1  0  0  0
  3  2  1  0  0  0
  3  4  1  0  0  0
  4  5  2  0  0  0
  4  6  1  0  0  0
  6 18  1  0  0  0
 18 19  2  0  0  0
 19 20  1  0  0  0
 20 21  2  0  0  0
 21 22  1  0  0  0
 22 23  2  0  0  0
 23 24  1  0  0  0
 24 25  2  0  0  0
 25 26  1  0  0  0
 26 27  2  0  0  0
  6  7  1  0  0  0
  7  8  1  0  0  0
  8 34  1  0  0  0
 34 35  1  0  0  0
 35 37  1  0  0  0
 37 38  2  0  0  0
 38 39  1  0  0  0
 39 40  2  0  0  0
 40 41  1  0  0  0
 41 42  2  0  0  0
  3  9  1  0  0  0
  9 10  2  0  0  0
 10 11  1  0  0  0
 11 12  1  0  0  0
 11 13  2  0  0  0
 13 14  1  0  0  0
 14 15  2  0  0  0
 15 16  1  0  0  0
 16 17  2  0  0  0
 16  1  1  0  0  0
  8  3  1  0  0  0
 42 37  1  0  0  0
 15  9  1  0  0  0
 27 18  1  0  0  0
 27 22  1  0  0  0
 30 33  1  0  0  0
 35 36  1  0  0  0
M  END
> <minimizedAffinity>
-7.80522

> <CNNscore>
0.3707079291

> <CNNaffinity>
6.8832244873

> <CNN_VS>
2.5516657829

> <CNNaffinity_variance>
0.0976760462

$$$$



 42 47  0  0  0  0  0  0  0  0999 V2000
   -7.1845   -0.8278  -21.4365 N   0  0  0  0  0  0  0  0  0  0  0  0
   -7.2354    0.5186  -22.0959 C   0  0  0  0  0  0  0  0  0  0  0  0
   -8.4663    0.9427  -22.8409 C   0  0  0  0  0  0  0  0  0  0  0  0
   -9.6223    1.5014  -23.6164 C   0  0  0  0  0  0  0  0  0  0  0  0
  -10.7441    1.1930  -23.9667 O   0  0  0  0  0  0  0  0  0  0  0  0
   -9.2407    2.8707  -24.0954 N   0  0  0  0  0  0  0  0  0  0  0  0
   -7.8488    3.1583  -23.6158 C   0  0  0  0  0  0  0  0  0  0  0  0
   -7.3702    1.9667  -22.8405 C   0  0  0  0  0  0  0  0  0  0  0  0
   -9.6462    0.0205  -22.9265 C   0  0  0  0  0  0  0  0  0  0  0  0
  -10.8771    0.4446  -23.6715 C   0  0  0  0  0  0  0  0  0  0  0  0
  -12.0570   -0.4776  -23.7572 C   0  0  0  0  0  0  0  0  0  0  0  0
  -13.2879   -0.0535  -24.5022 Cl  0  0  0  0  0  0  0  0  0  0  0  0
  -12.0060   -1.8240  -23.0978 C   0  0  0  0  0  0  0  0  0  0  0  0
  -10.7751   -2.2481  -22.3528 C   0  0  0  0  0  0  0  0  0  0  0  0
   -9.5953   -1.3259  -22.2672 C   0  0  0  0  0  0  0  0  0  0  0  0
   -8.3643   -1.7500  -21.5221 C   0  0  0  0  0  0  0  0  0  0  0  0
   -8.3134   -3.0963  -20.8627 O   0  0  0  0  0  0  0  0  0  0  0  0
  -10.1000    3.7909  -24.9107 C   0  0  0  0  0  0  0  0  0  0  0  0
   -9.7311    4.0990  -26.3316 C   0  0  0  0  0  0  0  0  0  0  0  0
  -10.5905    5.0192  -27.1470 N   0  0  0  0  0  0  0  0  0  0  0  0
  -11.8188    5.6312  -26.5414 C   0  0  0  0  0  0  0  0  0  0  0  0
  -12.1877    5.3230  -25.1204 C   0  0  0  0  0  0  0  0  0  0  0  0
  -13.4160    5.9351  -24.5148 C   0  0  0  0  0  0  0  0  0  0  0  0
  -13.7848    5.6269  -23.0939 C   0  0  0  0  0  0  0  0  0  0  0  0
  -12.9255    4.7068  -22.2786 C   0  0  0  0  0  0  0  0  0  0  0  0
  -11.6972    4.0948  -22.8842 C   0  0  0  0  0  0  0  0  0  0  0  0
  -11.3283    4.4029  -24.3051 C   0  0  0  0  0  0  0  0  0  0  0  0
   -5.9535   -1.2519  -20.6914 C   0  0  0  0  0  0  0  0  0  0  0  0
   -5.3698   -5.0434  -21.7081 C   0  0  0  0  0  0  0  0  0  0  0  0
   -5.7255   -3.5893  -21.8025 N   0  0  0  0  0  0  0  0  0  0  0  0
   -5.5978   -2.7060  -20.5970 C   0  0  0  0  0  0  0  0  0  0  0  0
   -5.1143   -3.2769  -19.2968 O   0  0  0  0  0  0  0  0  0  0  0  0
   -6.0429   -3.2146  -22.6559 H   0  0  0  0  0  0  0  0  0  0  0  0
   -6.0307    1.8242  -22.1806 C   0  0  0  0  0  0  0  0  0  0  0  0
   -5.2210    3.0443  -21.8558 N   0  0  0  0  0  0  0  0  0  0  0  0
   -5.6050    3.9405  -21.9920 H   0  0  0  0  0  0  0  0  0  0  0  0
   -3.8262    2.8990  -21.3234 C   0  0  0  0  0  0  0  0  0  0  0  0
   -3.4512    1.6867  -20.5237 C   0  0  0  0  0  0  0  0  0  0  0  0
   -2.0564    1.5414  -19.9913 N   0  0  0  0  0  0  0  0  0  0  0  0
   -1.0366    2.6085  -20.2587 C   0  0  0  0  0  0  0  0  0  0  0  0
   -1.4116    3.8208  -21.0584 C   0  0  0  0  0  0  0  0  0  0  0  0
   -2.8065    3.9661  -21.5908 N   0  0  0  0  0  0  0  0  0  0  0  0
 29 30  1  0  0  0
 30 31  1  0  0  0
 31 32  2  0  0  0
 31 28  1  0  0  0
 28  1  1  0  0  0
  1  2  1  0  0  0
  3  2  1  0  0  0
  3  4  1  0  0  0
  4  5  2  0  0  0
  4  6  1  0  0  0
  6 18  1  0  0  0
 18 19  2  0  0  0
 19 20  1  0  0  0
 20 21  2  0  0  0
 21 22  1  0  0  0
 22 23  2  0  0  0
 23 24  1  0  0  0
 24 25  2  0  0  0
 25 26  1  0  0  0
 26 27  2  0  0  0
  6  7  1  0  0  0
  7  8  1  0  0  0
  8 34  1  0  0  0
 34 35  1  0  0  0
 35 37  1  0  0  0
 37 38  2  0  0  0
 38 39  1  0  0  0
 39 40  2  0  0  0
 40 41  1  0  0  0
 41 42  2  0  0  0
  3  9  1  0  0  0
  9 10  2  0  0  0
 10 11  1  0  0  0
 11 12  1  0  0  0
 11 13  2  0  0  0
 13 14  1  0  0  0
 14 15  2  0  0  0
 15 16  1  0  0  0
 16 17  2  0  0  0
 16  1  1  0  0  0
  8  3  1  0  0  0
 42 37  1  0  0  0
 15  9  1  0  0  0
 27 18  1  0  0  0
 27 22  1  0  0  0
 30 33  1  0  0  0
 35 36  1  0  0  0
M  END
> <minimizedAffinity>
-7.58037

> <CNNscore>
0.3017131388

> <CNNaffinity>
6.5264611244

> <CNN_VS>
1.9691190720

> <CNNaffinity_variance>
0.0314915255

$$$$



 42 47  0  0  0  0  0  0  0  0999 V2000
  -10.0510    3.5082  -23.8758 N   0  0  0  0  0  0  0  0  0  0  0  0
   -8.8523    2.6073  -23.8382 C   0  0  0  0  0  0  0  0  0  0  0  0
   -9.0309    1.1281  -23.6656 C   0  0  0  0  0  0  0  0  0  0  0  0
   -9.0530   -0.3626  -23.4998 C   0  0  0  0  0  0  0  0  0  0  0  0
   -9.8467   -1.2717  -23.3585 O   0  0  0  0  0  0  0  0  0  0  0  0
   -7.6353   -0.8523  -23.5189 N   0  0  0  0  0  0  0  0  0  0  0  0
   -6.7370    0.3358  -23.6965 C   0  0  0  0  0  0  0  0  0  0  0  0
   -7.5995    1.5596  -23.7871 C   0  0  0  0  0  0  0  0  0  0  0  0
  -10.4083    0.5496  -23.5306 C   0  0  0  0  0  0  0  0  0  0  0  0
  -10.5869   -0.9297  -23.3580 C   0  0  0  0  0  0  0  0  0  0  0  0
  -11.9643   -1.5081  -23.2231 C   0  0  0  0  0  0  0  0  0  0  0  0
  -12.1430   -2.9874  -23.0505 Cl  0  0  0  0  0  0  0  0  0  0  0  0
  -13.1630   -0.6072  -23.2607 C   0  0  0  0  0  0  0  0  0  0  0  0
  -12.9844    0.8720  -23.4333 C   0  0  0  0  0  0  0  0  0  0  0  0
  -11.6071    1.4504  -23.5683 C   0  0  0  0  0  0  0  0  0  0  0  0
  -11.4284    2.9298  -23.7409 C   0  0  0  0  0  0  0  0  0  0  0  0
  -12.6272    3.8306  -23.7785 O   0  0  0  0  0  0  0  0  0  0  0  0
   -7.1936   -2.2794  -23.3841 C   0  0  0  0  0  0  0  0  0  0  0  0
   -6.5846   -2.7579  -22.0995 C   0  0  0  0  0  0  0  0  0  0  0  0
   -6.1429   -4.1850  -21.9646 N   0  0  0  0  0  0  0  0  0  0  0  0
   -6.3101   -5.1336  -23.1144 C   0  0  0  0  0  0  0  0  0  0  0  0
   -6.9191   -4.6552  -24.3991 C   0  0  0  0  0  0  0  0  0  0  0  0
   -7.0863   -5.6039  -25.5489 C   0  0  0  0  0  0  0  0  0  0  0  0
   -7.6953   -5.1253  -26.8335 C   0  0  0  0  0  0  0  0  0  0  0  0
   -8.1370   -3.6982  -26.9683 C   0  0  0  0  0  0  0  0  0  0  0  0
   -7.9698   -2.7496  -25.8185 C   0  0  0  0  0  0  0  0  0  0  0  0
   -7.3608   -3.2280  -24.5339 C   0  0  0  0  0  0  0  0  0  0  0  0
   -9.8724    4.9875  -24.0484 C   0  0  0  0  0  0  0  0  0  0  0  0
  -11.7784    6.6085  -27.1289 C   0  0  0  0  0  0  0  0  0  0  0  0
  -11.5251    5.9733  -25.7939 N   0  0  0  0  0  0  0  0  0  0  0  0
  -10.1256    5.6228  -25.3834 C   0  0  0  0  0  0  0  0  0  0  0  0
   -8.9792    5.9077  -26.3080 O   0  0  0  0  0  0  0  0  0  0  0  0
  -12.2775    5.7863  -25.1871 H   0  0  0  0  0  0  0  0  0  0  0  0
   -7.1155    2.9679  -23.9676 C   0  0  0  0  0  0  0  0  0  0  0  0
   -6.6067    3.7431  -22.7886 N   0  0  0  0  0  0  0  0  0  0  0  0
   -7.1379    4.4866  -22.4221 H   0  0  0  0  0  0  0  0  0  0  0  0
   -5.2888    3.3856  -22.1681 C   0  0  0  0  0  0  0  0  0  0  0  0
   -4.0681    4.2002  -22.4784 C   0  0  0  0  0  0  0  0  0  0  0  0
   -2.7502    3.8428  -21.8579 N   0  0  0  0  0  0  0  0  0  0  0  0
   -2.6528    2.6706  -20.9269 C   0  0  0  0  0  0  0  0  0  0  0  0
   -3.8734    1.8560  -20.6165 C   0  0  0  0  0  0  0  0  0  0  0  0
   -5.1914    2.2135  -21.2371 N   0  0  0  0  0  0  0  0  0  0  0  0
 29 30  1  0  0  0
 30 31  1  0  0  0
 31 32  2  0  0  0
 31 28  1  0  0  0
 28  1  1  0  0  0
  1  2  1  0  0  0
  3  2  1  0  0  0
  3  4  1  0  0  0
  4  5  2  0  0  0
  4  6  1  0  0  0
  6 18  1  0  0  0
 18 19  2  0  0  0
 19 20  1  0  0  0
 20 21  2  0  0  0
 21 22  1  0  0  0
 22 23  2  0  0  0
 23 24  1  0  0  0
 24 25  2  0  0  0
 25 26  1  0  0  0
 26 27  2  0  0  0
  6  7  1  0  0  0
  7  8  1  0  0  0
  8 34  1  0  0  0
 34 35  1  0  0  0
 35 37  1  0  0  0
 37 38  2  0  0  0
 38 39  1  0  0  0
 39 40  2  0  0  0
 40 41  1  0  0  0
 41 42  2  0  0  0
  3  9  1  0  0  0
  9 10  2  0  0  0
 10 11  1  0  0  0
 11 12  1  0  0  0
 11 13  2  0  0  0
 13 14  1  0  0  0
 14 15  2  0  0  0
 15 16  1  0  0  0
 16 17  2  0  0  0
 16  1  1  0  0  0
  8  3  1  0  0  0
 42 37  1  0  0  0
 15  9  1  0  0  0
 27 18  1  0  0  0
 27 22  1  0  0  0
 30 33  1  0  0  0
 35 36  1  0  0  0
M  END
> <minimizedAffinity>
-7.32060

> <CNNscore>
0.2482718527

> <CNNaffinity>
6.5451455116

> <CNN_VS>
1.6249754429

> <CNNaffinity_variance>
0.2825391889

$$$$



 42 47  0  0  0  0  0  0  0  0999 V2000
   -8.8373    2.5681  -24.1999 N   0  0  0  0  0  0  0  0  0  0  0  0
   -7.9754    1.3468  -24.3245 C   0  0  0  0  0  0  0  0  0  0  0  0
   -8.5683   -0.0144  -24.1115 C   0  0  0  0  0  0  0  0  0  0  0  0
   -9.0181   -1.4335  -23.9277 C   0  0  0  0  0  0  0  0  0  0  0  0
  -10.0221   -2.0650  -23.6639 O   0  0  0  0  0  0  0  0  0  0  0  0
   -7.8330   -2.3272  -24.1444 N   0  0  0  0  0  0  0  0  0  0  0  0
   -6.6508   -1.4605  -24.4621 C   0  0  0  0  0  0  0  0  0  0  0  0
   -7.1052   -0.0311  -24.4419 C   0  0  0  0  0  0  0  0  0  0  0  0
  -10.0231   -0.1545  -23.7740 C   0  0  0  0  0  0  0  0  0  0  0  0
  -10.6160   -1.5157  -23.5611 C   0  0  0  0  0  0  0  0  0  0  0  0
  -12.0708   -1.6557  -23.2237 C   0  0  0  0  0  0  0  0  0  0  0  0
  -12.6638   -3.0170  -23.0107 Cl  0  0  0  0  0  0  0  0  0  0  0  0
  -12.9327   -0.4344  -23.0991 C   0  0  0  0  0  0  0  0  0  0  0  0
  -12.3398    0.9269  -23.3120 C   0  0  0  0  0  0  0  0  0  0  0  0
  -10.8850    1.0669  -23.6495 C   0  0  0  0  0  0  0  0  0  0  0  0
  -10.2921    2.4282  -23.8624 C   0  0  0  0  0  0  0  0  0  0  0  0
  -11.1540    3.6495  -23.7378 O   0  0  0  0  0  0  0  0  0  0  0  0
   -7.8307   -3.8248  -24.0584 C   0  0  0  0  0  0  0  0  0  0  0  0
   -7.2660   -4.5056  -22.8469 C   0  0  0  0  0  0  0  0  0  0  0  0
   -7.2636   -6.0031  -22.7609 N   0  0  0  0  0  0  0  0  0  0  0  0
   -7.8260   -6.8198  -23.8864 C   0  0  0  0  0  0  0  0  0  0  0  0
   -8.3907   -6.1390  -25.0978 C   0  0  0  0  0  0  0  0  0  0  0  0
   -8.9531   -6.9558  -26.2233 C   0  0  0  0  0  0  0  0  0  0  0  0
   -9.5178   -6.2749  -27.4347 C   0  0  0  0  0  0  0  0  0  0  0  0
   -9.5202   -4.7774  -27.5207 C   0  0  0  0  0  0  0  0  0  0  0  0
   -8.9578   -3.9607  -26.3953 C   0  0  0  0  0  0  0  0  0  0  0  0
   -8.3931   -4.6415  -25.1838 C   0  0  0  0  0  0  0  0  0  0  0  0
   -8.2443    3.9295  -24.4128 C   0  0  0  0  0  0  0  0  0  0  0  0
  -10.8166    6.4055  -26.1456 C   0  0  0  0  0  0  0  0  0  0  0  0
   -9.9204    5.2245  -25.9173 N   0  0  0  0  0  0  0  0  0  0  0  0
   -9.1404    5.1105  -24.6411 C   0  0  0  0  0  0  0  0  0  0  0  0
   -9.2566    6.1776  -23.5933 O   0  0  0  0  0  0  0  0  0  0  0  0
   -9.8442    4.5242  -26.6050 H   0  0  0  0  0  0  0  0  0  0  0  0
   -6.2471    1.1706  -24.7056 C   0  0  0  0  0  0  0  0  0  0  0  0
   -4.7994    1.1592  -24.3135 N   0  0  0  0  0  0  0  0  0  0  0  0
   -4.1028    1.0810  -25.0048 H   0  0  0  0  0  0  0  0  0  0  0  0
   -4.4129    1.2668  -22.8681 C   0  0  0  0  0  0  0  0  0  0  0  0
   -3.7351    2.5060  -22.3633 C   0  0  0  0  0  0  0  0  0  0  0  0
   -3.3486    2.6137  -20.9180 N   0  0  0  0  0  0  0  0  0  0  0  0
   -3.6399    1.4821  -19.9774 C   0  0  0  0  0  0  0  0  0  0  0  0
   -4.3177    0.2428  -20.4822 C   0  0  0  0  0  0  0  0  0  0  0  0
   -4.7042    0.1352  -21.9276 N   0  0  0  0  0  0  0  0  0  0  0  0
 29 30  1  0  0  0
 30 31  1  0  0  0
 31 32  2  0  0  0
 31 28  1  0  0  0
 28  1  1  0  0  0
  1  2  1  0  0  0
  3  2  1  0  0  0
  3  4  1  0  0  0
  4  5  2  0  0  0
  4  6  1  0  0  0
  6 18  1  0  0  0
 18 19  2  0  0  0
 19 20  1  0  0  0
 20 21  2  0  0  0
 21 22  1  0  0  0
 22 23  2  0  0  0
 23 24  1  0  0  0
 24 25  2  0  0  0
 25 26  1  0  0  0
 26 27  2  0  0  0
  6  7  1  0  0  0
  7  8  1  0  0  0
  8 34  1  0  0  0
 34 35  1  0  0  0
 35 37  1  0  0  0
 37 38  2  0  0  0
 38 39  1  0  0  0
 39 40  2  0  0  0
 40 41  1  0  0  0
 41 42  2  0  0  0
  3  9  1  0  0  0
  9 10  2  0  0  0
 10 11  1  0  0  0
 11 12  1  0  0  0
 11 13  2  0  0  0
 13 14  1  0  0  0
 14 15  2  0  0  0
 15 16  1  0  0  0
 16 17  2  0  0  0
 16  1  1  0  0  0
  8  3  1  0  0  0
 42 37  1  0  0  0
 15  9  1  0  0  0
 27 18  1  0  0  0
 27 22  1  0  0  0
 30 33  1  0  0  0
 35 36  1  0  0  0
M  END
> <minimizedAffinity>
-7.58444

> <CNNscore>
0.2208510488

> <CNNaffinity>
6.7554712296

> <CNN_VS>
1.4919528961

> <CNNaffinity_variance>
0.1158319265

$$$$



 42 47  0  0  0  0  0  0  0  0999 V2000
   -7.0312   -3.3618  -22.4299 N   0  0  0  0  0  0  0  0  0  0  0  0
   -7.8308   -2.4387  -23.3007 C   0  0  0  0  0  0  0  0  0  0  0  0
   -7.5551   -0.9644  -23.2829 C   0  0  0  0  0  0  0  0  0  0  0  0
   -7.3941    0.5243  -23.3713 C   0  0  0  0  0  0  0  0  0  0  0  0
   -6.7187    1.4172  -22.8992 O   0  0  0  0  0  0  0  0  0  0  0  0
   -8.3956    1.0409  -24.3613 N   0  0  0  0  0  0  0  0  0  0  0  0
   -9.1757   -0.1285  -24.8848 C   0  0  0  0  0  0  0  0  0  0  0  0
   -8.6562   -1.3679  -24.2182 C   0  0  0  0  0  0  0  0  0  0  0  0
   -6.4798   -0.4132  -22.3941 C   0  0  0  0  0  0  0  0  0  0  0  0
   -6.2041    1.0612  -22.3763 C   0  0  0  0  0  0  0  0  0  0  0  0
   -5.1288    1.6123  -21.4875 C   0  0  0  0  0  0  0  0  0  0  0  0
   -4.8531    3.0867  -21.4696 Cl  0  0  0  0  0  0  0  0  0  0  0  0
   -4.3292    0.6892  -20.6167 C   0  0  0  0  0  0  0  0  0  0  0  0
   -4.6049   -0.7851  -20.6345 C   0  0  0  0  0  0  0  0  0  0  0  0
   -5.6802   -1.3363  -21.5232 C   0  0  0  0  0  0  0  0  0  0  0  0
   -5.9559   -2.8107  -21.5411 C   0  0  0  0  0  0  0  0  0  0  0  0
   -5.1563   -3.7338  -20.6703 O   0  0  0  0  0  0  0  0  0  0  0  0
   -8.5840    2.4751  -24.7582 C   0  0  0  0  0  0  0  0  0  0  0  0
   -7.5203    3.1815  -25.5452 C   0  0  0  0  0  0  0  0  0  0  0  0
   -7.7087    4.6157  -25.9421 N   0  0  0  0  0  0  0  0  0  0  0  0
   -8.9609    5.3436  -25.5519 C   0  0  0  0  0  0  0  0  0  0  0  0
  -10.0246    4.6372  -24.7649 C   0  0  0  0  0  0  0  0  0  0  0  0
  -11.2769    5.3651  -24.3747 C   0  0  0  0  0  0  0  0  0  0  0  0
  -12.3406    4.6586  -23.5877 C   0  0  0  0  0  0  0  0  0  0  0  0
  -12.1522    3.2244  -23.1908 C   0  0  0  0  0  0  0  0  0  0  0  0
  -10.9000    2.4966  -23.5810 C   0  0  0  0  0  0  0  0  0  0  0  0
   -9.8362    3.2029  -24.3680 C   0  0  0  0  0  0  0  0  0  0  0  0
   -7.3069   -4.8362  -22.4477 C   0  0  0  0  0  0  0  0  0  0  0  0
   -4.1356   -6.9511  -23.5521 C   0  0  0  0  0  0  0  0  0  0  0  0
   -5.0223   -6.0318  -22.7657 N   0  0  0  0  0  0  0  0  0  0  0  0
   -6.4202   -5.7555  -23.2342 C   0  0  0  0  0  0  0  0  0  0  0  0
   -6.9314   -6.3986  -24.4893 O   0  0  0  0  0  0  0  0  0  0  0  0
   -4.6868   -5.6097  -21.9419 H   0  0  0  0  0  0  0  0  0  0  0  0
   -9.1509   -2.7653  -24.4470 C   0  0  0  0  0  0  0  0  0  0  0  0
  -10.2360   -3.3285  -23.5779 N   0  0  0  0  0  0  0  0  0  0  0  0
  -10.1188   -4.2083  -23.1521 H   0  0  0  0  0  0  0  0  0  0  0  0
  -11.4998   -2.5511  -23.3576 C   0  0  0  0  0  0  0  0  0  0  0  0
  -11.7417   -1.2814  -24.1188 C   0  0  0  0  0  0  0  0  0  0  0  0
  -13.0055   -0.5041  -23.8985 N   0  0  0  0  0  0  0  0  0  0  0  0
  -14.0275   -0.9964  -22.9170 C   0  0  0  0  0  0  0  0  0  0  0  0
  -13.7856   -2.2661  -22.1558 C   0  0  0  0  0  0  0  0  0  0  0  0
  -12.5218   -3.0434  -22.3761 N   0  0  0  0  0  0  0  0  0  0  0  0
 29 30  1  0  0  0
 30 31  1  0  0  0
 31 32  2  0  0  0
 31 28  1  0  0  0
 28  1  1  0  0  0
  1  2  1  0  0  0
  3  2  1  0  0  0
  3  4  1  0  0  0
  4  5  2  0  0  0
  4  6  1  0  0  0
  6 18  1  0  0  0
 18 19  2  0  0  0
 19 20  1  0  0  0
 20 21  2  0  0  0
 21 22  1  0  0  0
 22 23  2  0  0  0
 23 24  1  0  0  0
 24 25  2  0  0  0
 25 26  1  0  0  0
 26 27  2  0  0  0
  6  7  1  0  0  0
  7  8  1  0  0  0
  8 34  1  0  0  0
 34 35  1  0  0  0
 35 37  1  0  0  0
 37 38  2  0  0  0
 38 39  1  0  0  0
 39 40  2  0  0  0
 40 41  1  0  0  0
 41 42  2  0  0  0
  3  9  1  0  0  0
  9 10  2  0  0  0
 10 11  1  0  0  0
 11 12  1  0  0  0
 11 13  2  0  0  0
 13 14  1  0  0  0
 14 15  2  0  0  0
 15 16  1  0  0  0
 16 17  2  0  0  0
 16  1  1  0  0  0
  8  3  1  0  0  0
 42 37  1  0  0  0
 15  9  1  0  0  0
 27 18  1  0  0  0
 27 22  1  0  0  0
 30 33  1  0  0  0
 35 36  1  0  0  0
M  END
> <minimizedAffinity>
-7.71459

> <CNNscore>
0.1951776147

> <CNNaffinity>
6.7749238014

> <CNN_VS>
1.3223134279

> <CNNaffinity_variance>
0.0991707891

$$$$



 42 47  0  0  0  0  0  0  0  0999 V2000
   -6.3579   -0.1897  -22.4476 N   0  0  0  0  0  0  0  0  0  0  0  0
   -6.6553    1.0603  -23.2215 C   0  0  0  0  0  0  0  0  0  0  0  0
   -8.0453    1.3199  -23.7219 C   0  0  0  0  0  0  0  0  0  0  0  0
   -9.3797    1.7132  -24.2828 C   0  0  0  0  0  0  0  0  0  0  0  0
  -10.5212    1.3016  -24.3449 O   0  0  0  0  0  0  0  0  0  0  0  0
   -9.2196    3.0325  -24.9784 N   0  0  0  0  0  0  0  0  0  0  0  0
   -7.7862    3.4545  -24.8474 C   0  0  0  0  0  0  0  0  0  0  0  0
   -7.0604    2.3961  -24.0708 C   0  0  0  0  0  0  0  0  0  0  0  0
   -9.1381    0.3293  -23.4484 C   0  0  0  0  0  0  0  0  0  0  0  0
  -10.5281    0.5888  -23.9488 C   0  0  0  0  0  0  0  0  0  0  0  0
  -11.6208   -0.4017  -23.6753 C   0  0  0  0  0  0  0  0  0  0  0  0
  -13.0109   -0.1422  -24.1757 Cl  0  0  0  0  0  0  0  0  0  0  0  0
  -11.3234   -1.6518  -22.9013 C   0  0  0  0  0  0  0  0  0  0  0  0
   -9.9334   -1.9113  -22.4009 C   0  0  0  0  0  0  0  0  0  0  0  0
   -8.8407   -0.9208  -22.6745 C   0  0  0  0  0  0  0  0  0  0  0  0
   -7.4506   -1.1803  -22.1741 C   0  0  0  0  0  0  0  0  0  0  0  0
   -7.1533   -2.4303  -21.4001 O   0  0  0  0  0  0  0  0  0  0  0  0
  -10.3027    3.7957  -25.6814 C   0  0  0  0  0  0  0  0  0  0  0  0
  -10.2710    3.9396  -27.1742 C   0  0  0  0  0  0  0  0  0  0  0  0
  -11.3541    4.7028  -27.8773 N   0  0  0  0  0  0  0  0  0  0  0  0
  -12.4689    5.3221  -27.0876 C   0  0  0  0  0  0  0  0  0  0  0  0
  -12.5007    5.1782  -25.5949 C   0  0  0  0  0  0  0  0  0  0  0  0
  -13.6156    5.7975  -24.8052 C   0  0  0  0  0  0  0  0  0  0  0  0
  -13.6472    5.6536  -23.3125 C   0  0  0  0  0  0  0  0  0  0  0  0
  -12.5641    4.8904  -22.6094 C   0  0  0  0  0  0  0  0  0  0  0  0
  -11.4493    4.2711  -23.3990 C   0  0  0  0  0  0  0  0  0  0  0  0
  -11.4175    4.4150  -24.8918 C   0  0  0  0  0  0  0  0  0  0  0  0
   -4.9678   -0.4492  -21.9472 C   0  0  0  0  0  0  0  0  0  0  0  0
   -5.1258   -0.0569  -18.0012 C   0  0  0  0  0  0  0  0  0  0  0  0
   -5.5002   -0.4325  -19.4043 N   0  0  0  0  0  0  0  0  0  0  0  0
   -4.5935   -0.0736  -20.5441 C   0  0  0  0  0  0  0  0  0  0  0  0
   -3.3124    0.6611  -20.2807 O   0  0  0  0  0  0  0  0  0  0  0  0
   -6.3409   -0.9147  -19.5772 H   0  0  0  0  0  0  0  0  0  0  0  0
   -5.6053    2.4112  -23.7071 C   0  0  0  0  0  0  0  0  0  0  0  0
   -4.5685    2.6218  -24.7704 N   0  0  0  0  0  0  0  0  0  0  0  0
   -4.7557    3.2214  -25.5285 H   0  0  0  0  0  0  0  0  0  0  0  0
   -3.2466    1.9188  -24.6788 C   0  0  0  0  0  0  0  0  0  0  0  0
   -3.1032    0.5201  -25.2012 C   0  0  0  0  0  0  0  0  0  0  0  0
   -1.7814   -0.1828  -25.1096 N   0  0  0  0  0  0  0  0  0  0  0  0
   -0.6028    0.5129  -24.4956 C   0  0  0  0  0  0  0  0  0  0  0  0
   -0.7462    1.9117  -23.9732 C   0  0  0  0  0  0  0  0  0  0  0  0
   -2.0681    2.6146  -24.0648 N   0  0  0  0  0  0  0  0  0  0  0  0
 29 30  1  0  0  0
 30 31  1  0  0  0
 31 32  2  0  0  0
 31 28  1  0  0  0
 28  1  1  0  0  0
  1  2  1  0  0  0
  3  2  1  0  0  0
  3  4  1  0  0  0
  4  5  2  0  0  0
  4  6  1  0  0  0
  6 18  1  0  0  0
 18 19  2  0  0  0
 19 20  1  0  0  0
 20 21  2  0  0  0
 21 22  1  0  0  0
 22 23  2  0  0  0
 23 24  1  0  0  0
 24 25  2  0  0  0
 25 26  1  0  0  0
 26 27  2  0  0  0
  6  7  1  0  0  0
  7  8  1  0  0  0
  8 34  1  0  0  0
 34 35  1  0  0  0
 35 37  1  0  0  0
 37 38  2  0  0  0
 38 39  1  0  0  0
 39 40  2  0  0  0
 40 41  1  0  0  0
 41 42  2  0  0  0
  3  9  1  0  0  0
  9 10  2  0  0  0
 10 11  1  0  0  0
 11 12  1  0  0  0
 11 13  2  0  0  0
 13 14  1  0  0  0
 14 15  2  0  0  0
 15 16  1  0  0  0
 16 17  2  0  0  0
 16  1  1  0  0  0
  8  3  1  0  0  0
 42 37  1  0  0  0
 15  9  1  0  0  0
 27 18  1  0  0  0
 27 22  1  0  0  0
 30 33  1  0  0  0
 35 36  1  0  0  0
M  END
> <minimizedAffinity>
-7.61869

> <CNNscore>
0.1660828292

> <CNNaffinity>
6.3071827888

> <CNN_VS>
1.0475147963

> <CNNaffinity_variance>
0.1427330226

$$$$



 42 47  0  0  0  0  0  0  0  0999 V2000
   -9.2113   -2.5129  -23.1894 N   0  0  0  0  0  0  0  0  0  0  0  0
   -8.2161   -1.3907  -23.2015 C   0  0  0  0  0  0  0  0  0  0  0  0
   -8.6889    0.0301  -23.2881 C   0  0  0  0  0  0  0  0  0  0  0  0
   -9.0105    1.4929  -23.3705 C   0  0  0  0  0  0  0  0  0  0  0  0
   -9.9722    2.2318  -23.4450 O   0  0  0  0  0  0  0  0  0  0  0  0
   -7.7177    2.2535  -23.3532 N   0  0  0  0  0  0  0  0  0  0  0  0
   -6.5971    1.2607  -23.2601 C   0  0  0  0  0  0  0  0  0  0  0  0
   -7.1973   -0.1134  -23.2199 C   0  0  0  0  0  0  0  0  0  0  0  0
  -10.1570    0.3288  -23.3627 C   0  0  0  0  0  0  0  0  0  0  0  0
  -10.6298    1.7497  -23.4493 C   0  0  0  0  0  0  0  0  0  0  0  0
  -12.0979    2.0483  -23.5238 C   0  0  0  0  0  0  0  0  0  0  0  0
  -12.5708    3.4693  -23.6105 Cl  0  0  0  0  0  0  0  0  0  0  0  0
  -13.0931    0.9261  -23.5118 C   0  0  0  0  0  0  0  0  0  0  0  0
  -12.6203   -0.4947  -23.4252 C   0  0  0  0  0  0  0  0  0  0  0  0
  -11.1522   -0.7934  -23.3506 C   0  0  0  0  0  0  0  0  0  0  0  0
  -10.6793   -2.2143  -23.2640 C   0  0  0  0  0  0  0  0  0  0  0  0
  -11.6746   -3.3365  -23.2519 O   0  0  0  0  0  0  0  0  0  0  0  0
   -7.5712    3.7449  -23.4176 C   0  0  0  0  0  0  0  0  0  0  0  0
   -7.2447    4.5209  -22.1761 C   0  0  0  0  0  0  0  0  0  0  0  0
   -7.0983    6.0123  -22.2406 N   0  0  0  0  0  0  0  0  0  0  0  0
   -7.2783    6.7278  -23.5465 C   0  0  0  0  0  0  0  0  0  0  0  0
   -7.6048    5.9519  -24.7881 C   0  0  0  0  0  0  0  0  0  0  0  0
   -7.7849    6.6675  -26.0941 C   0  0  0  0  0  0  0  0  0  0  0  0
   -8.1113    5.8914  -27.3356 C   0  0  0  0  0  0  0  0  0  0  0  0
   -8.2578    4.4000  -27.2711 C   0  0  0  0  0  0  0  0  0  0  0  0
   -8.0778    3.6845  -25.9651 C   0  0  0  0  0  0  0  0  0  0  0  0
   -7.7513    4.4604  -24.7236 C   0  0  0  0  0  0  0  0  0  0  0  0
   -8.7384   -3.9339  -23.1028 C   0  0  0  0  0  0  0  0  0  0  0  0
   -7.3223   -6.7114  -25.5584 C   0  0  0  0  0  0  0  0  0  0  0  0
   -7.5982   -5.9350  -24.3050 N   0  0  0  0  0  0  0  0  0  0  0  0
   -8.4625   -4.7102  -24.3563 C   0  0  0  0  0  0  0  0  0  0  0  0
   -9.0509   -4.2616  -25.6612 O   0  0  0  0  0  0  0  0  0  0  0  0
   -7.2120   -6.2294  -23.4486 H   0  0  0  0  0  0  0  0  0  0  0  0
   -6.4391   -1.4043  -23.1277 C   0  0  0  0  0  0  0  0  0  0  0  0
   -5.1769   -1.4768  -22.3206 N   0  0  0  0  0  0  0  0  0  0  0  0
   -4.3451   -1.8009  -22.7357 H   0  0  0  0  0  0  0  0  0  0  0  0
   -5.1820   -1.0557  -20.8809 C   0  0  0  0  0  0  0  0  0  0  0  0
   -5.8490   -1.9171  -19.8498 C   0  0  0  0  0  0  0  0  0  0  0  0
   -5.8540   -1.4960  -18.4103 N   0  0  0  0  0  0  0  0  0  0  0  0
   -5.1921   -0.2134  -18.0016 C   0  0  0  0  0  0  0  0  0  0  0  0
   -4.5251    0.6480  -19.0327 C   0  0  0  0  0  0  0  0  0  0  0  0
   -4.5200    0.2268  -20.4723 N   0  0  0  0  0  0  0  0  0  0  0  0
 29 30  1  0  0  0
 30 31  1  0  0  0
 31 32  2  0  0  0
 31 28  1  0  0  0
 28  1  1  0  0  0
  1  2  1  0  0  0
  3  2  1  0  0  0
  3  4  1  0  0  0
  4  5  2  0  0  0
  4  6  1  0  0  0
  6 18  1  0  0  0
 18 19  2  0  0  0
 19 20  1  0  0  0
 20 21  2  0  0  0
 21 22  1  0  0  0
 22 23  2  0  0  0
 23 24  1  0  0  0
 24 25  2  0  0  0
 25 26  1  0  0  0
 26 27  2  0  0  0
  6  7  1  0  0  0
  7  8  1  0  0  0
  8 34  1  0  0  0
 34 35  1  0  0  0
 35 37  1  0  0  0
 37 38  2  0  0  0
 38 39  1  0  0  0
 39 40  2  0  0  0
 40 41  1  0  0  0
 41 42  2  0  0  0
  3  9  1  0  0  0
  9 10  2  0  0  0
 10 11  1  0  0  0
 11 12  1  0  0  0
 11 13  2  0  0  0
 13 14  1  0  0  0
 14 15  2  0  0  0
 15 16  1  0  0  0
 16 17  2  0  0  0
 16  1  1  0  0  0
  8  3  1  0  0  0
 42 37  1  0  0  0
 15  9  1  0  0  0
 27 18  1  0  0  0
 27 22  1  0  0  0
 30 33  1  0  0  0
 35 36  1  0  0  0
M  END
> <minimizedAffinity>
-8.55727

> <CNNscore>
0.1438267529

> <CNNaffinity>
6.4609880447

> <CNN_VS>
0.9292629361

> <CNNaffinity_variance>
0.5524718761

$$$$
