


 42 47  0  0  0  0  0  0  0  0999 V2000
   10.1537    0.3017   23.0317 N   0  0  0  0  0  0  0  0  0  0  0  0
    8.9383   -0.5658   22.8891 C   0  0  0  0  0  0  0  0  0  0  0  0
    8.8432   -1.8546   23.6505 C   0  0  0  0  0  0  0  0  0  0  0  0
    8.6076   -3.1633   24.3446 C   0  0  0  0  0  0  0  0  0  0  0  0
    9.1545   -3.9122   25.1297 O   0  0  0  0  0  0  0  0  0  0  0  0
    7.2688   -3.6832   23.9119 N   0  0  0  0  0  0  0  0  0  0  0  0
    6.6769   -2.6958   22.9503 C   0  0  0  0  0  0  0  0  0  0  0  0
    7.6499   -1.5656   22.7888 C   0  0  0  0  0  0  0  0  0  0  0  0
    9.9635   -2.2760   24.5547 C   0  0  0  0  0  0  0  0  0  0  0  0
    9.8684   -3.5649   25.3161 C   0  0  0  0  0  0  0  0  0  0  0  0
   10.9886   -3.9863   26.2202 C   0  0  0  0  0  0  0  0  0  0  0  0
   10.8935   -5.2751   26.9817 Cl  0  0  0  0  0  0  0  0  0  0  0  0
   12.2040   -3.1188   26.3628 C   0  0  0  0  0  0  0  0  0  0  0  0
   12.2992   -1.8300   25.6013 C   0  0  0  0  0  0  0  0  0  0  0  0
   11.1789   -1.4086   24.6973 C   0  0  0  0  0  0  0  0  0  0  0  0
   11.2740   -0.1197   23.9358 C   0  0  0  0  0  0  0  0  0  0  0  0
   12.4894    0.7477   24.0784 O   0  0  0  0  0  0  0  0  0  0  0  0
    6.6334   -4.9653   24.3617 C   0  0  0  0  0  0  0  0  0  0  0  0
    7.0461   -6.2659   23.7386 C   0  0  0  0  0  0  0  0  0  0  0  0
    6.4107   -7.5481   24.1884 N   0  0  0  0  0  0  0  0  0  0  0  0
    5.3627   -7.5296   25.2614 C   0  0  0  0  0  0  0  0  0  0  0  0
    4.9501   -6.2291   25.8846 C   0  0  0  0  0  0  0  0  0  0  0  0
    3.9020   -6.2107   26.9576 C   0  0  0  0  0  0  0  0  0  0  0  0
    3.4894   -4.9101   27.5807 C   0  0  0  0  0  0  0  0  0  0  0  0
    4.1248   -3.6279   27.1308 C   0  0  0  0  0  0  0  0  0  0  0  0
    5.1728   -3.6463   26.0578 C   0  0  0  0  0  0  0  0  0  0  0  0
    5.5854   -4.9469   25.4347 C   0  0  0  0  0  0  0  0  0  0  0  0
   10.2488    1.5906   22.2702 C   0  0  0  0  0  0  0  0  0  0  0  0
    7.8899    4.5498   23.4653 C   0  0  0  0  0  0  0  0  0  0  0  0
    9.0247    3.5696   23.4255 N   0  0  0  0  0  0  0  0  0  0  0  0
    9.1140    2.5707   22.3101 C   0  0  0  0  0  0  0  0  0  0  0  0
    8.0686    2.5518   21.2345 O   0  0  0  0  0  0  0  0  0  0  0  0
    9.7108    3.5820   24.1314 H   0  0  0  0  0  0  0  0  0  0  0  0
    7.4626   -0.3585   21.9183 C   0  0  0  0  0  0  0  0  0  0  0  0
    7.3379   -0.5176   20.4320 N   0  0  0  0  0  0  0  0  0  0  0  0
    7.9889   -1.0680   19.9396 H   0  0  0  0  0  0  0  0  0  0  0  0
    6.2215    0.1619   19.6959 C   0  0  0  0  0  0  0  0  0  0  0  0
    5.0311    0.6774   20.4490 C   0  0  0  0  0  0  0  0  0  0  0  0
    3.9147    1.3569   19.7130 N   0  0  0  0  0  0  0  0  0  0  0  0
    3.9886    1.5210   18.2238 C   0  0  0  0  0  0  0  0  0  0  0  0
    5.1791    1.0055   17.4707 C   0  0  0  0  0  0  0  0  0  0  0  0
    6.2955    0.3260   18.2068 N   0  0  0  0  0  0  0  0  0  0  0  0
 29 30  1  0  0  0
 30 31  1  0  0  0
 31 32  2  0  0  0
 31 28  1  0  0  0
 28  1  1  0  0  0
  1  2  1  0  0  0
  3  2  1  0  0  0
  3  4  1  0  0  0
  4  5  2  0  0  0
  4  6  1  0  0  0
  6 18  1  0  0  0
 18 19  2  0  0  0
 19 20  1  0  0  0
 20 21  2  0  0  0
 21 22  1  0  0  0
 22 23  2  0  0  0
 23 24  1  0  0  0
 24 25  2  0  0  0
 25 26  1  0  0  0
 26 27  2  0  0  0
  6  7  1  0  0  0
  7  8  1  0  0  0
  8 34  1  0  0  0
 34 35  1  0  0  0
 35 37  1  0  0  0
 37 38  2  0  0  0
 38 39  1  0  0  0
 39 40  2  0  0  0
 40 41  1  0  0  0
 41 42  2  0  0  0
  3  9  1  0  0  0
  9 10  2  0  0  0
 10 11  1  0  0  0
 11 12  1  0  0  0
 11 13  2  0  0  0
 13 14  1  0  0  0
 14 15  2  0  0  0
 15 16  1  0  0  0
 16 17  2  0  0  0
 16  1  1  0  0  0
  8  3  1  0  0  0
 42 37  1  0  0  0
 15  9  1  0  0  0
 27 18  1  0  0  0
 27 22  1  0  0  0
 30 33  1  0  0  0
 35 36  1  0  0  0
M  END
> <minimizedAffinity>
-9.28827

> <CNNscore>
0.5489782691

> <CNNaffinity>
7.3212165833

> <CNN_VS>
4.0191888809

> <CNNaffinity_variance>
0.1181762591

$$$$



 42 47  0  0  0  0  0  0  0  0999 V2000
    4.7759    1.2925   22.8716 N   0  0  0  0  0  0  0  0  0  0  0  0
    6.1674    0.7531   23.0224 C   0  0  0  0  0  0  0  0  0  0  0  0
    6.4866   -0.1971   24.1383 C   0  0  0  0  0  0  0  0  0  0  0  0
    6.9528   -1.1499   25.1989 C   0  0  0  0  0  0  0  0  0  0  0  0
    6.5228   -1.7545   26.1612 O   0  0  0  0  0  0  0  0  0  0  0  0
    8.4106   -1.4200   24.9711 N   0  0  0  0  0  0  0  0  0  0  0  0
    8.8454   -0.6342   23.7697 C   0  0  0  0  0  0  0  0  0  0  0  0
    7.6564    0.1216   23.2550 C   0  0  0  0  0  0  0  0  0  0  0  0
    5.4143   -0.6081   25.1033 C   0  0  0  0  0  0  0  0  0  0  0  0
    5.7335   -1.5583   26.2192 C   0  0  0  0  0  0  0  0  0  0  0  0
    4.6611   -1.9692   27.1841 C   0  0  0  0  0  0  0  0  0  0  0  0
    4.9803   -2.9195   28.3000 Cl  0  0  0  0  0  0  0  0  0  0  0  0
    3.2696   -1.4298   27.0333 C   0  0  0  0  0  0  0  0  0  0  0  0
    2.9504   -0.4796   25.9174 C   0  0  0  0  0  0  0  0  0  0  0  0
    4.0227   -0.0687   24.9525 C   0  0  0  0  0  0  0  0  0  0  0  0
    3.7036    0.8816   23.8366 C   0  0  0  0  0  0  0  0  0  0  0  0
    2.3121    1.4209   23.6857 O   0  0  0  0  0  0  0  0  0  0  0  0
    9.2807   -2.3183   25.7993 C   0  0  0  0  0  0  0  0  0  0  0  0
    8.6579   -3.3364   26.7079 C   0  0  0  0  0  0  0  0  0  0  0  0
    9.5280   -4.2346   27.5362 N   0  0  0  0  0  0  0  0  0  0  0  0
   11.0210   -4.1148   27.4558 C   0  0  0  0  0  0  0  0  0  0  0  0
   11.6439   -3.0967   26.5472 C   0  0  0  0  0  0  0  0  0  0  0  0
   13.1370   -2.9769   26.4669 C   0  0  0  0  0  0  0  0  0  0  0  0
   13.7598   -1.9587   25.5582 C   0  0  0  0  0  0  0  0  0  0  0  0
   12.8897   -1.0605   24.7300 C   0  0  0  0  0  0  0  0  0  0  0  0
   11.3966   -1.1803   24.8104 C   0  0  0  0  0  0  0  0  0  0  0  0
   10.7738   -2.1984   25.7190 C   0  0  0  0  0  0  0  0  0  0  0  0
    4.4568    2.2427   21.7557 C   0  0  0  0  0  0  0  0  0  0  0  0
    4.7254    0.7862   18.0738 C   0  0  0  0  0  0  0  0  0  0  0  0
    5.1193    1.3162   19.4206 N   0  0  0  0  0  0  0  0  0  0  0  0
    4.0629    1.7127   20.4088 C   0  0  0  0  0  0  0  0  0  0  0  0
    2.6124    1.5792   20.0503 O   0  0  0  0  0  0  0  0  0  0  0  0
    6.0712    1.4039   19.6560 H   0  0  0  0  0  0  0  0  0  0  0  0
    7.6399    1.0357   22.0658 C   0  0  0  0  0  0  0  0  0  0  0  0
    7.9998    2.4829   22.2271 N   0  0  0  0  0  0  0  0  0  0  0  0
    7.3005    3.1734   22.1683 H   0  0  0  0  0  0  0  0  0  0  0  0
    9.4249    2.8780   22.4780 C   0  0  0  0  0  0  0  0  0  0  0  0
    9.7683    4.3120   22.7528 C   0  0  0  0  0  0  0  0  0  0  0  0
   11.1933    4.7072   23.0037 N   0  0  0  0  0  0  0  0  0  0  0  0
   12.2751    3.6682   22.9798 C   0  0  0  0  0  0  0  0  0  0  0  0
   11.9317    2.2342   22.7050 C   0  0  0  0  0  0  0  0  0  0  0  0
   10.5066    1.8391   22.4541 N   0  0  0  0  0  0  0  0  0  0  0  0
 29 30  1  0  0  0
 30 31  1  0  0  0
 31 32  2  0  0  0
 31 28  1  0  0  0
 28  1  1  0  0  0
  1  2  1  0  0  0
  3  2  1  0  0  0
  3  4  1  0  0  0
  4  5  2  0  0  0
  4  6  1  0  0  0
  6 18  1  0  0  0
 18 19  2  0  0  0
 19 20  1  0  0  0
 20 21  2  0  0  0
 21 22  1  0  0  0
 22 23  2  0  0  0
 23 24  1  0  0  0
 24 25  2  0  0  0
 25 26  1  0  0  0
 26 27  2  0  0  0
  6  7  1  0  0  0
  7  8  1  0  0  0
  8 34  1  0  0  0
 34 35  1  0  0  0
 35 37  1  0  0  0
 37 38  2  0  0  0
 38 39  1  0  0  0
 39 40  2  0  0  0
 40 41  1  0  0  0
 41 42  2  0  0  0
  3  9  1  0  0  0
  9 10  2  0  0  0
 10 11  1  0  0  0
 11 12  1  0  0  0
 11 13  2  0  0  0
 13 14  1  0  0  0
 14 15  2  0  0  0
 15 16  1  0  0  0
 16 17  2  0  0  0
 16  1  1  0  0  0
  8  3  1  0  0  0
 42 37  1  0  0  0
 15  9  1  0  0  0
 27 18  1  0  0  0
 27 22  1  0  0  0
 30 33  1  0  0  0
 35 36  1  0  0  0
M  END
> <minimizedAffinity>
-7.36742

> <CNNscore>
0.4001973271

> <CNNaffinity>
7.0999274254

> <CNN_VS>
2.8413720131

> <CNNaffinity_variance>
0.0249363687

$$$$



 42 47  0  0  0  0  0  0  0  0999 V2000
    7.0244   -3.8425   23.3139 N   0  0  0  0  0  0  0  0  0  0  0  0
    7.2204   -2.4586   22.7693 C   0  0  0  0  0  0  0  0  0  0  0  0
    8.4104   -1.6484   23.1903 C   0  0  0  0  0  0  0  0  0  0  0  0
    9.5458   -0.7245   23.5179 C   0  0  0  0  0  0  0  0  0  0  0  0
   10.5537   -0.6923   24.1957 O   0  0  0  0  0  0  0  0  0  0  0  0
    9.3424    0.5494   22.7525 N   0  0  0  0  0  0  0  0  0  0  0  0
    8.0814    0.4128   21.9518 C   0  0  0  0  0  0  0  0  0  0  0  0
    7.5054   -0.9455   22.2224 C   0  0  0  0  0  0  0  0  0  0  0  0
    9.4046   -2.2221   24.1561 C   0  0  0  0  0  0  0  0  0  0  0  0
   10.5946   -1.4119   24.5772 C   0  0  0  0  0  0  0  0  0  0  0  0
   11.5887   -1.9855   25.5429 C   0  0  0  0  0  0  0  0  0  0  0  0
   12.7788   -1.1753   25.9640 Cl  0  0  0  0  0  0  0  0  0  0  0  0
   11.3928   -3.3693   26.0875 C   0  0  0  0  0  0  0  0  0  0  0  0
   10.2028   -4.1795   25.6665 C   0  0  0  0  0  0  0  0  0  0  0  0
    9.2087   -3.6059   24.7008 C   0  0  0  0  0  0  0  0  0  0  0  0
    8.0185   -4.4161   24.2796 C   0  0  0  0  0  0  0  0  0  0  0  0
    7.8226   -5.7999   24.8243 O   0  0  0  0  0  0  0  0  0  0  0  0
   10.2422    1.7492   22.7825 C   0  0  0  0  0  0  0  0  0  0  0  0
   11.7256    1.5780   22.6401 C   0  0  0  0  0  0  0  0  0  0  0  0
   12.6253    2.7778   22.6701 N   0  0  0  0  0  0  0  0  0  0  0  0
   12.0417    4.1488   22.8425 C   0  0  0  0  0  0  0  0  0  0  0  0
   10.5583    4.3199   22.9849 C   0  0  0  0  0  0  0  0  0  0  0  0
    9.9746    5.6910   23.1573 C   0  0  0  0  0  0  0  0  0  0  0  0
    8.4912    5.8621   23.2997 C   0  0  0  0  0  0  0  0  0  0  0  0
    7.5915    4.6623   23.2697 C   0  0  0  0  0  0  0  0  0  0  0  0
    8.1751    3.2913   23.0973 C   0  0  0  0  0  0  0  0  0  0  0  0
    9.6585    3.1201   22.9549 C   0  0  0  0  0  0  0  0  0  0  0  0
    5.8343   -4.6527   22.8928 C   0  0  0  0  0  0  0  0  0  0  0  0
    3.8481   -7.4989   24.8173 C   0  0  0  0  0  0  0  0  0  0  0  0
    4.6873   -6.8064   23.7847 N   0  0  0  0  0  0  0  0  0  0  0  0
    4.9951   -5.3451   23.9254 C   0  0  0  0  0  0  0  0  0  0  0  0
    4.4636   -4.5762   25.0986 O   0  0  0  0  0  0  0  0  0  0  0  0
    5.0361   -7.3111   23.0147 H   0  0  0  0  0  0  0  0  0  0  0  0
    6.2455   -1.5031   21.6292 C   0  0  0  0  0  0  0  0  0  0  0  0
    5.0699   -0.6042   21.3845 N   0  0  0  0  0  0  0  0  0  0  0  0
    4.3936   -0.4758   22.0883 H   0  0  0  0  0  0  0  0  0  0  0  0
    4.9248    0.0992   20.0676 C   0  0  0  0  0  0  0  0  0  0  0  0
    5.8465   -0.2361   18.9327 C   0  0  0  0  0  0  0  0  0  0  0  0
    5.7014    0.4672   17.6159 N   0  0  0  0  0  0  0  0  0  0  0  0
    4.6346    1.5059   17.4338 C   0  0  0  0  0  0  0  0  0  0  0  0
    3.7129    1.8412   18.5688 C   0  0  0  0  0  0  0  0  0  0  0  0
    3.8580    1.1379   19.8857 N   0  0  0  0  0  0  0  0  0  0  0  0
 29 30  1  0  0  0
 30 31  1  0  0  0
 31 32  2  0  0  0
 31 28  1  0  0  0
 28  1  1  0  0  0
  1  2  1  0  0  0
  3  2  1  0  0  0
  3  4  1  0  0  0
  4  5  2  0  0  0
  4  6  1  0  0  0
  6 18  1  0  0  0
 18 19  2  0  0  0
 19 20  1  0  0  0
 20 21  2  0  0  0
 21 22  1  0  0  0
 22 23  2  0  0  0
 23 24  1  0  0  0
 24 25  2  0  0  0
 25 26  1  0  0  0
 26 27  2  0  0  0
  6  7  1  0  0  0
  7  8  1  0  0  0
  8 34  1  0  0  0
 34 35  1  0  0  0
 35 37  1  0  0  0
 37 38  2  0  0  0
 38 39  1  0  0  0
 39 40  2  0  0  0
 40 41  1  0  0  0
 41 42  2  0  0  0
  3  9  1  0  0  0
  9 10  2  0  0  0
 10 11  1  0  0  0
 11 12  1  0  0  0
 11 13  2  0  0  0
 13 14  1  0  0  0
 14 15  2  0  0  0
 15 16  1  0  0  0
 16 17  2  0  0  0
 16  1  1  0  0  0
  8  3  1  0  0  0
 42 37  1  0  0  0
 15  9  1  0  0  0
 27 18  1  0  0  0
 27 22  1  0  0  0
 30 33  1  0  0  0
 35 36  1  0  0  0
M  END
> <minimizedAffinity>
-8.93822

> <CNNscore>
0.3485325873

> <CNNaffinity>
7.0429739952

> <CNN_VS>
2.4547059536

> <CNNaffinity_variance>
0.0910607204

$$$$



 42 47  0  0  0  0  0  0  0  0999 V2000
    9.7685    0.5635   22.8540 N   0  0  0  0  0  0  0  0  0  0  0  0
    8.6149   -0.3879   22.7353 C   0  0  0  0  0  0  0  0  0  0  0  0
    8.6165   -1.6695   23.5146 C   0  0  0  0  0  0  0  0  0  0  0  0
    8.4787   -2.9817   24.2282 C   0  0  0  0  0  0  0  0  0  0  0  0
    9.0836   -3.6800   25.0174 O   0  0  0  0  0  0  0  0  0  0  0  0
    7.1752   -3.5989   23.8161 N   0  0  0  0  0  0  0  0  0  0  0  0
    6.5073   -2.6682   22.8477 C   0  0  0  0  0  0  0  0  0  0  0  0
    7.3981   -1.4758   22.6613 C   0  0  0  0  0  0  0  0  0  0  0  0
    9.7717   -1.9998   24.4126 C   0  0  0  0  0  0  0  0  0  0  0  0
    9.7733   -3.2815   25.1919 C   0  0  0  0  0  0  0  0  0  0  0  0
   10.9285   -3.6118   26.0899 C   0  0  0  0  0  0  0  0  0  0  0  0
   10.9301   -4.8935   26.8692 Cl  0  0  0  0  0  0  0  0  0  0  0  0
   12.0821   -2.6604   26.2086 C   0  0  0  0  0  0  0  0  0  0  0  0
   12.0805   -1.3787   25.4293 C   0  0  0  0  0  0  0  0  0  0  0  0
   10.9253   -1.0484   24.5313 C   0  0  0  0  0  0  0  0  0  0  0  0
   10.9236    0.2333   23.7520 C   0  0  0  0  0  0  0  0  0  0  0  0
   12.0772    1.1847   23.8707 O   0  0  0  0  0  0  0  0  0  0  0  0
    6.6345   -4.9156   24.2892 C   0  0  0  0  0  0  0  0  0  0  0  0
    7.1779   -6.1955   23.7264 C   0  0  0  0  0  0  0  0  0  0  0  0
    6.6373   -7.5122   24.1995 N   0  0  0  0  0  0  0  0  0  0  0  0
    5.5532   -7.5491   25.2356 C   0  0  0  0  0  0  0  0  0  0  0  0
    5.0098   -6.2693   25.7985 C   0  0  0  0  0  0  0  0  0  0  0  0
    3.9257   -6.3062   26.8346 C   0  0  0  0  0  0  0  0  0  0  0  0
    3.3824   -5.0263   27.3974 C   0  0  0  0  0  0  0  0  0  0  0  0
    3.9230   -3.7096   26.9242 C   0  0  0  0  0  0  0  0  0  0  0  0
    5.0071   -3.6727   25.8881 C   0  0  0  0  0  0  0  0  0  0  0  0
    5.5505   -4.9525   25.3253 C   0  0  0  0  0  0  0  0  0  0  0  0
    9.7668    1.8453   22.0747 C   0  0  0  0  0  0  0  0  0  0  0  0
   11.0963    5.3530   23.3700 C   0  0  0  0  0  0  0  0  0  0  0  0
   10.1597    4.2441   22.9917 N   0  0  0  0  0  0  0  0  0  0  0  0
   10.7034    2.9542   22.4529 C   0  0  0  0  0  0  0  0  0  0  0  0
   12.1838    2.7731   22.2923 O   0  0  0  0  0  0  0  0  0  0  0  0
    9.1881    4.3630   23.0971 H   0  0  0  0  0  0  0  0  0  0  0  0
    7.1193   -0.2967   21.7770 C   0  0  0  0  0  0  0  0  0  0  0  0
    5.7053    0.0599   21.4260 N   0  0  0  0  0  0  0  0  0  0  0  0
    4.9992    0.0031   22.1096 H   0  0  0  0  0  0  0  0  0  0  0  0
    5.3672    0.5030   20.0334 C   0  0  0  0  0  0  0  0  0  0  0  0
    6.2659    0.1351   18.8902 C   0  0  0  0  0  0  0  0  0  0  0  0
    5.9278    0.5782   17.4977 N   0  0  0  0  0  0  0  0  0  0  0  0
    4.6909    1.3893   17.2482 C   0  0  0  0  0  0  0  0  0  0  0  0
    3.7921    1.7572   18.3914 C   0  0  0  0  0  0  0  0  0  0  0  0
    4.1303    1.3141   19.7840 N   0  0  0  0  0  0  0  0  0  0  0  0
 29 30  1  0  0  0
 30 31  1  0  0  0
 31 32  2  0  0  0
 31 28  1  0  0  0
 28  1  1  0  0  0
  1  2  1  0  0  0
  3  2  1  0  0  0
  3  4  1  0  0  0
  4  5  2  0  0  0
  4  6  1  0  0  0
  6 18  1  0  0  0
 18 19  2  0  0  0
 19 20  1  0  0  0
 20 21  2  0  0  0
 21 22  1  0  0  0
 22 23  2  0  0  0
 23 24  1  0  0  0
 24 25  2  0  0  0
 25 26  1  0  0  0
 26 27  2  0  0  0
  6  7  1  0  0  0
  7  8  1  0  0  0
  8 34  1  0  0  0
 34 35  1  0  0  0
 35 37  1  0  0  0
 37 38  2  0  0  0
 38 39  1  0  0  0
 39 40  2  0  0  0
 40 41  1  0  0  0
 41 42  2  0  0  0
  3  9  1  0  0  0
  9 10  2  0  0  0
 10 11  1  0  0  0
 11 12  1  0  0  0
 11 13  2  0  0  0
 13 14  1  0  0  0
 14 15  2  0  0  0
 15 16  1  0  0  0
 16 17  2  0  0  0
 16  1  1  0  0  0
  8  3  1  0  0  0
 42 37  1  0  0  0
 15  9  1  0  0  0
 27 18  1  0  0  0
 27 22  1  0  0  0
 30 33  1  0  0  0
 35 36  1  0  0  0
M  END
> <minimizedAffinity>
-9.35390

> <CNNscore>
0.2956443727

> <CNNaffinity>
7.0905585289

> <CNN_VS>
2.0962836742

> <CNNaffinity_variance>
0.0540419817

$$$$



 42 47  0  0  0  0  0  0  0  0999 V2000
   10.0492    0.7656   23.1441 N   0  0  0  0  0  0  0  0  0  0  0  0
    8.6891    0.1680   23.3514 C   0  0  0  0  0  0  0  0  0  0  0  0
    8.5174   -1.0046   24.2710 C   0  0  0  0  0  0  0  0  0  0  0  0
    8.1928   -2.1721   25.1550 C   0  0  0  0  0  0  0  0  0  0  0  0
    8.7439   -2.9536   25.9046 O   0  0  0  0  0  0  0  0  0  0  0  0
    6.7179   -2.4287   25.0611 N   0  0  0  0  0  0  0  0  0  0  0  0
    6.1309   -1.4198   24.1190 C   0  0  0  0  0  0  0  0  0  0  0  0
    7.2431   -0.5397   23.6307 C   0  0  0  0  0  0  0  0  0  0  0  0
    9.7058   -1.5795   24.9832 C   0  0  0  0  0  0  0  0  0  0  0  0
    9.5340   -2.7521   25.9028 C   0  0  0  0  0  0  0  0  0  0  0  0
   10.7224   -3.3270   26.6150 C   0  0  0  0  0  0  0  0  0  0  0  0
   10.5507   -4.4996   27.5346 Cl  0  0  0  0  0  0  0  0  0  0  0  0
   12.0824   -2.7293   26.4077 C   0  0  0  0  0  0  0  0  0  0  0  0
   12.2542   -1.5568   25.4881 C   0  0  0  0  0  0  0  0  0  0  0  0
   11.0658   -0.9819   24.7759 C   0  0  0  0  0  0  0  0  0  0  0  0
   11.2375    0.1907   23.8563 C   0  0  0  0  0  0  0  0  0  0  0  0
   12.5976    0.7884   23.6490 O   0  0  0  0  0  0  0  0  0  0  0  0
    5.9626   -3.5052   25.7826 C   0  0  0  0  0  0  0  0  0  0  0  0
    5.5967   -4.7724   25.0682 C   0  0  0  0  0  0  0  0  0  0  0  0
    4.8414   -5.8490   25.7897 N   0  0  0  0  0  0  0  0  0  0  0  0
    4.4520   -5.6583   27.2257 C   0  0  0  0  0  0  0  0  0  0  0  0
    4.8178   -4.3911   27.9401 C   0  0  0  0  0  0  0  0  0  0  0  0
    4.4283   -4.2004   29.3761 C   0  0  0  0  0  0  0  0  0  0  0  0
    4.7942   -2.9332   30.0904 C   0  0  0  0  0  0  0  0  0  0  0  0
    5.5495   -1.8567   29.3689 C   0  0  0  0  0  0  0  0  0  0  0  0
    5.9390   -2.0474   27.9330 C   0  0  0  0  0  0  0  0  0  0  0  0
    5.5731   -3.3146   27.2186 C   0  0  0  0  0  0  0  0  0  0  0  0
   10.2209    1.9382   22.2245 C   0  0  0  0  0  0  0  0  0  0  0  0
   10.6348    5.8122   22.9802 C   0  0  0  0  0  0  0  0  0  0  0  0
   10.9252    4.4250   22.4889 N   0  0  0  0  0  0  0  0  0  0  0  0
    9.9305    3.3254   22.7157 C   0  0  0  0  0  0  0  0  0  0  0  0
    8.6453    3.6130   23.4339 O   0  0  0  0  0  0  0  0  0  0  0  0
   11.7687    4.2362   22.0176 H   0  0  0  0  0  0  0  0  0  0  0  0
    7.1051    0.6045   22.6706 C   0  0  0  0  0  0  0  0  0  0  0  0
    5.7641    0.9354   22.0858 N   0  0  0  0  0  0  0  0  0  0  0  0
    5.0128    1.1681   22.6779 H   0  0  0  0  0  0  0  0  0  0  0  0
    5.5677    0.9119   20.5989 C   0  0  0  0  0  0  0  0  0  0  0  0
    6.6395    0.3549   19.7096 C   0  0  0  0  0  0  0  0  0  0  0  0
    6.4432    0.3314   18.2227 N   0  0  0  0  0  0  0  0  0  0  0  0
    5.1750    0.8649   17.6251 C   0  0  0  0  0  0  0  0  0  0  0  0
    4.1032    1.4219   18.5144 C   0  0  0  0  0  0  0  0  0  0  0  0
    4.2995    1.4454   20.0013 N   0  0  0  0  0  0  0  0  0  0  0  0
 29 30  1  0  0  0
 30 31  1  0  0  0
 31 32  2  0  0  0
 31 28  1  0  0  0
 28  1  1  0  0  0
  1  2  1  0  0  0
  3  2  1  0  0  0
  3  4  1  0  0  0
  4  5  2  0  0  0
  4  6  1  0  0  0
  6 18  1  0  0  0
 18 19  2  0  0  0
 19 20  1  0  0  0
 20 21  2  0  0  0
 21 22  1  0  0  0
 22 23  2  0  0  0
 23 24  1  0  0  0
 24 25  2  0  0  0
 25 26  1  0  0  0
 26 27  2  0  0  0
  6  7  1  0  0  0
  7  8  1  0  0  0
  8 34  1  0  0  0
 34 35  1  0  0  0
 35 37  1  0  0  0
 37 38  2  0  0  0
 38 39  1  0  0  0
 39 40  2  0  0  0
 40 41  1  0  0  0
 41 42  2  0  0  0
  3  9  1  0  0  0
  9 10  2  0  0  0
 10 11  1  0  0  0
 11 12  1  0  0  0
 11 13  2  0  0  0
 13 14  1  0  0  0
 14 15  2  0  0  0
 15 16  1  0  0  0
 16 17  2  0  0  0
 16  1  1  0  0  0
  8  3  1  0  0  0
 42 37  1  0  0  0
 15  9  1  0  0  0
 27 18  1  0  0  0
 27 22  1  0  0  0
 30 33  1  0  0  0
 35 36  1  0  0  0
M  END
> <minimizedAffinity>
-8.92044

> <CNNscore>
0.2220778018

> <CNNaffinity>
6.7797279358

> <CNN_VS>
1.5056270361

> <CNNaffinity_variance>
0.1835736036

$$$$



 42 47  0  0  0  0  0  0  0  0999 V2000
    5.4829    3.6610   22.7575 N   0  0  0  0  0  0  0  0  0  0  0  0
    6.0957    2.2969   22.8749 C   0  0  0  0  0  0  0  0  0  0  0  0
    7.5834    2.1512   22.9993 C   0  0  0  0  0  0  0  0  0  0  0  0
    9.0471    1.8504   23.1297 C   0  0  0  0  0  0  0  0  0  0  0  0
   10.1148    2.4279   23.1844 O   0  0  0  0  0  0  0  0  0  0  0  0
    9.2084    0.3617   23.2179 N   0  0  0  0  0  0  0  0  0  0  0  0
    7.8443   -0.2576   23.1421 C   0  0  0  0  0  0  0  0  0  0  0  0
    6.8400    0.8484   23.0069 C   0  0  0  0  0  0  0  0  0  0  0  0
    8.4584    3.3696   23.0063 C   0  0  0  0  0  0  0  0  0  0  0  0
    9.9460    3.2239   23.1307 C   0  0  0  0  0  0  0  0  0  0  0  0
   10.8209    4.4423   23.1377 C   0  0  0  0  0  0  0  0  0  0  0  0
   12.3087    4.2966   23.2621 Cl  0  0  0  0  0  0  0  0  0  0  0  0
   10.2082    5.8063   23.0203 C   0  0  0  0  0  0  0  0  0  0  0  0
    8.7205    5.9521   22.8959 C   0  0  0  0  0  0  0  0  0  0  0  0
    7.8456    4.7337   22.8889 C   0  0  0  0  0  0  0  0  0  0  0  0
    6.3578    4.8794   22.7645 C   0  0  0  0  0  0  0  0  0  0  0  0
    5.7450    6.2434   22.6470 O   0  0  0  0  0  0  0  0  0  0  0  0
   10.5060   -0.3778   23.3575 C   0  0  0  0  0  0  0  0  0  0  0  0
   11.6346   -0.0977   22.4100 C   0  0  0  0  0  0  0  0  0  0  0  0
   12.9321   -0.8372   22.5496 N   0  0  0  0  0  0  0  0  0  0  0  0
   13.1010   -1.8568   23.6367 C   0  0  0  0  0  0  0  0  0  0  0  0
   11.9724   -2.1369   24.5842 C   0  0  0  0  0  0  0  0  0  0  0  0
   12.1414   -3.1566   25.6714 C   0  0  0  0  0  0  0  0  0  0  0  0
   11.0127   -3.4366   26.6188 C   0  0  0  0  0  0  0  0  0  0  0  0
    9.7151   -2.6971   26.4792 C   0  0  0  0  0  0  0  0  0  0  0  0
    9.5462   -1.6775   25.3921 C   0  0  0  0  0  0  0  0  0  0  0  0
   10.6749   -1.3974   24.4446 C   0  0  0  0  0  0  0  0  0  0  0  0
    3.9951    3.8067   22.6330 C   0  0  0  0  0  0  0  0  0  0  0  0
    2.6154    7.2548   21.2343 C   0  0  0  0  0  0  0  0  0  0  0  0
    3.2341    5.8891   21.2787 N   0  0  0  0  0  0  0  0  0  0  0  0
    3.3764    5.1724   22.5887 C   0  0  0  0  0  0  0  0  0  0  0  0
    2.9000    5.8214   23.8543 O   0  0  0  0  0  0  0  0  0  0  0  0
    3.5469    5.4631   20.4480 H   0  0  0  0  0  0  0  0  0  0  0  0
    5.3534    0.6809   22.8985 C   0  0  0  0  0  0  0  0  0  0  0  0
    4.7766   -0.2576   21.8805 N   0  0  0  0  0  0  0  0  0  0  0  0
    4.3752   -1.1094   22.1679 H   0  0  0  0  0  0  0  0  0  0  0  0
    4.8113    0.1015   20.4245 C   0  0  0  0  0  0  0  0  0  0  0  0
    5.6113   -0.7298   19.4659 C   0  0  0  0  0  0  0  0  0  0  0  0
    5.6461   -0.3707   18.0100 N   0  0  0  0  0  0  0  0  0  0  0  0
    4.8809    0.8198   17.5126 C   0  0  0  0  0  0  0  0  0  0  0  0
    4.0809    1.6511   18.4713 C   0  0  0  0  0  0  0  0  0  0  0  0
    4.0462    1.2919   19.9272 N   0  0  0  0  0  0  0  0  0  0  0  0
 29 30  1  0  0  0
 30 31  1  0  0  0
 31 32  2  0  0  0
 31 28  1  0  0  0
 28  1  1  0  0  0
  1  2  1  0  0  0
  3  2  1  0  0  0
  3  4  1  0  0  0
  4  5  2  0  0  0
  4  6  1  0  0  0
  6 18  1  0  0  0
 18 19  2  0  0  0
 19 20  1  0  0  0
 20 21  2  0  0  0
 21 22  1  0  0  0
 22 23  2  0  0  0
 23 24  1  0  0  0
 24 25  2  0  0  0
 25 26  1  0  0  0
 26 27  2  0  0  0
  6  7  1  0  0  0
  7  8  1  0  0  0
  8 34  1  0  0  0
 34 35  1  0  0  0
 35 37  1  0  0  0
 37 38  2  0  0  0
 38 39  1  0  0  0
 39 40  2  0  0  0
 40 41  1  0  0  0
 41 42  2  0  0  0
  3  9  1  0  0  0
  9 10  2  0  0  0
 10 11  1  0  0  0
 11 12  1  0  0  0
 11 13  2  0  0  0
 13 14  1  0  0  0
 14 15  2  0  0  0
 15 16  1  0  0  0
 16 17  2  0  0  0
 16  1  1  0  0  0
  8  3  1  0  0  0
 42 37  1  0  0  0
 15  9  1  0  0  0
 27 18  1  0  0  0
 27 22  1  0  0  0
 30 33  1  0  0  0
 35 36  1  0  0  0
M  END
> <minimizedAffinity>
-8.38519

> <CNNscore>
0.1893174201

> <CNNaffinity>
6.6530585289

> <CNN_VS>
1.2595398426

> <CNNaffinity_variance>
0.1711483151

$$$$



 42 47  0  0  0  0  0  0  0  0999 V2000
    9.9113    0.4779   22.9814 N   0  0  0  0  0  0  0  0  0  0  0  0
    8.6608   -0.3501   22.9540 C   0  0  0  0  0  0  0  0  0  0  0  0
    8.5832   -1.6180   23.7518 C   0  0  0  0  0  0  0  0  0  0  0  0
    8.3597   -2.9023   24.4938 C   0  0  0  0  0  0  0  0  0  0  0  0
    8.9413   -3.6523   25.2525 O   0  0  0  0  0  0  0  0  0  0  0  0
    6.9750   -3.3851   24.1782 N   0  0  0  0  0  0  0  0  0  0  0  0
    6.3427   -2.3991   23.2412 C   0  0  0  0  0  0  0  0  0  0  0  0
    7.3366   -1.3070   22.9777 C   0  0  0  0  0  0  0  0  0  0  0  0
    9.7560   -2.0579   24.5770 C   0  0  0  0  0  0  0  0  0  0  0  0
    9.6784   -3.3257   25.3748 C   0  0  0  0  0  0  0  0  0  0  0  0
   10.8513   -3.7656   26.2000 C   0  0  0  0  0  0  0  0  0  0  0  0
   10.7737   -5.0335   26.9978 Cl  0  0  0  0  0  0  0  0  0  0  0  0
   12.1017   -2.9376   26.2273 C   0  0  0  0  0  0  0  0  0  0  0  0
   12.1794   -1.6698   25.4296 C   0  0  0  0  0  0  0  0  0  0  0  0
   11.0065   -1.2299   24.6044 C   0  0  0  0  0  0  0  0  0  0  0  0
   11.0841    0.0380   23.8066 C   0  0  0  0  0  0  0  0  0  0  0  0
   12.3346    0.8660   23.8339 O   0  0  0  0  0  0  0  0  0  0  0  0
    6.3351   -4.6345   24.7069 C   0  0  0  0  0  0  0  0  0  0  0  0
    6.7003   -5.9681   24.1253 C   0  0  0  0  0  0  0  0  0  0  0  0
    6.0603   -7.2175   24.6540 N   0  0  0  0  0  0  0  0  0  0  0  0
    5.0552   -7.1333   25.7642 C   0  0  0  0  0  0  0  0  0  0  0  0
    4.6900   -5.7997   26.3457 C   0  0  0  0  0  0  0  0  0  0  0  0
    3.6847   -5.7155   27.4559 C   0  0  0  0  0  0  0  0  0  0  0  0
    3.3196   -4.3819   28.0374 C   0  0  0  0  0  0  0  0  0  0  0  0
    3.9595   -3.1325   27.5088 C   0  0  0  0  0  0  0  0  0  0  0  0
    4.9647   -3.2167   26.3986 C   0  0  0  0  0  0  0  0  0  0  0  0
    5.3299   -4.5503   25.8171 C   0  0  0  0  0  0  0  0  0  0  0  0
    9.9889    1.7458   22.1836 C   0  0  0  0  0  0  0  0  0  0  0  0
   12.1242    5.0908   22.1562 C   0  0  0  0  0  0  0  0  0  0  0  0
   11.2451    3.9666   21.6943 N   0  0  0  0  0  0  0  0  0  0  0  0
   10.8679    2.8700   22.6455 C   0  0  0  0  0  0  0  0  0  0  0  0
   11.3698    2.8974   24.0589 O   0  0  0  0  0  0  0  0  0  0  0  0
   10.9157    3.9486   20.7667 H   0  0  0  0  0  0  0  0  0  0  0  0
    7.1216   -0.1135   22.0950 C   0  0  0  0  0  0  0  0  0  0  0  0
    6.6693   -0.3009   20.6772 N   0  0  0  0  0  0  0  0  0  0  0  0
    7.1509   -0.9226   20.0850 H   0  0  0  0  0  0  0  0  0  0  0  0
    5.4831    0.4589   20.1616 C   0  0  0  0  0  0  0  0  0  0  0  0
    4.4909    1.0429   21.1230 C   0  0  0  0  0  0  0  0  0  0  0  0
    3.3048    1.8027   20.6075 N   0  0  0  0  0  0  0  0  0  0  0  0
    3.1109    1.9785   19.1305 C   0  0  0  0  0  0  0  0  0  0  0  0
    4.1031    1.3945   18.1691 C   0  0  0  0  0  0  0  0  0  0  0  0
    5.2893    0.6347   18.6846 N   0  0  0  0  0  0  0  0  0  0  0  0
 29 30  1  0  0  0
 30 31  1  0  0  0
 31 32  2  0  0  0
 31 28  1  0  0  0
 28  1  1  0  0  0
  1  2  1  0  0  0
  3  2  1  0  0  0
  3  4  1  0  0  0
  4  5  2  0  0  0
  4  6  1  0  0  0
  6 18  1  0  0  0
 18 19  2  0  0  0
 19 20  1  0  0  0
 20 21  2  0  0  0
 21 22  1  0  0  0
 22 23  2  0  0  0
 23 24  1  0  0  0
 24 25  2  0  0  0
 25 26  1  0  0  0
 26 27  2  0  0  0
  6  7  1  0  0  0
  7  8  1  0  0  0
  8 34  1  0  0  0
 34 35  1  0  0  0
 35 37  1  0  0  0
 37 38  2  0  0  0
 38 39  1  0  0  0
 39 40  2  0  0  0
 40 41  1  0  0  0
 41 42  2  0  0  0
  3  9  1  0  0  0
  9 10  2  0  0  0
 10 11  1  0  0  0
 11 12  1  0  0  0
 11 13  2  0  0  0
 13 14  1  0  0  0
 14 15  2  0  0  0
 15 16  1  0  0  0
 16 17  2  0  0  0
 16  1  1  0  0  0
  8  3  1  0  0  0
 42 37  1  0  0  0
 15  9  1  0  0  0
 27 18  1  0  0  0
 27 22  1  0  0  0
 30 33  1  0  0  0
 35 36  1  0  0  0
M  END
> <minimizedAffinity>
-8.33251

> <CNNscore>
0.1872658432

> <CNNaffinity>
6.9644875526

> <CNN_VS>
1.3042106628

> <CNNaffinity_variance>
0.0862499774

$$$$



 42 47  0  0  0  0  0  0  0  0999 V2000
   10.8528    1.7033   22.6401 N   0  0  0  0  0  0  0  0  0  0  0  0
    9.4754    1.2571   23.0322 C   0  0  0  0  0  0  0  0  0  0  0  0
    9.2953    0.0193   23.8601 C   0  0  0  0  0  0  0  0  0  0  0  0
    8.9608   -1.1909   24.6808 C   0  0  0  0  0  0  0  0  0  0  0  0
    9.5131   -2.1125   25.2481 O   0  0  0  0  0  0  0  0  0  0  0  0
    7.4694   -1.2532   24.8283 N   0  0  0  0  0  0  0  0  0  0  0  0
    6.8821   -0.0815   24.0987 C   0  0  0  0  0  0  0  0  0  0  0  0
    8.0106    0.7049   23.5003 C   0  0  0  0  0  0  0  0  0  0  0  0
   10.4926   -0.7724   24.2959 C   0  0  0  0  0  0  0  0  0  0  0  0
   10.3125   -2.0102   25.1237 C   0  0  0  0  0  0  0  0  0  0  0  0
   11.5098   -2.8017   25.5594 C   0  0  0  0  0  0  0  0  0  0  0  0
   11.3297   -4.0396   26.3873 Cl  0  0  0  0  0  0  0  0  0  0  0  0
   12.8871   -2.3555   25.1673 C   0  0  0  0  0  0  0  0  0  0  0  0
   13.0672   -1.1177   24.3395 C   0  0  0  0  0  0  0  0  0  0  0  0
   11.8700   -0.3261   23.9037 C   0  0  0  0  0  0  0  0  0  0  0  0
   12.0500    0.9117   23.0758 C   0  0  0  0  0  0  0  0  0  0  0  0
   13.4274    1.3579   22.6837 O   0  0  0  0  0  0  0  0  0  0  0  0
    6.7003   -2.3029   25.5743 C   0  0  0  0  0  0  0  0  0  0  0  0
    6.3121   -2.0735   27.0050 C   0  0  0  0  0  0  0  0  0  0  0  0
    5.5430   -3.1232   27.7510 N   0  0  0  0  0  0  0  0  0  0  0  0
    5.1621   -4.4023   27.0664 C   0  0  0  0  0  0  0  0  0  0  0  0
    5.5503   -4.6318   25.6358 C   0  0  0  0  0  0  0  0  0  0  0  0
    5.1693   -5.9110   24.9512 C   0  0  0  0  0  0  0  0  0  0  0  0
    5.5575   -6.1403   23.5205 C   0  0  0  0  0  0  0  0  0  0  0  0
    6.3266   -5.0906   22.7745 C   0  0  0  0  0  0  0  0  0  0  0  0
    6.7075   -3.8115   23.4591 C   0  0  0  0  0  0  0  0  0  0  0  0
    6.3193   -3.5821   24.8897 C   0  0  0  0  0  0  0  0  0  0  0  0
   11.0328    2.9412   21.8122 C   0  0  0  0  0  0  0  0  0  0  0  0
   10.4694    6.4134   23.6496 C   0  0  0  0  0  0  0  0  0  0  0  0
   10.1853    5.1001   22.9830 N   0  0  0  0  0  0  0  0  0  0  0  0
   11.3170    4.2545   22.4788 C   0  0  0  0  0  0  0  0  0  0  0  0
   12.7329    4.7223   22.6413 O   0  0  0  0  0  0  0  0  0  0  0  0
    9.2560    4.7930   22.8763 H   0  0  0  0  0  0  0  0  0  0  0  0
    7.8776    1.9571   22.6853 C   0  0  0  0  0  0  0  0  0  0  0  0
    6.9210    2.0027   21.5310 N   0  0  0  0  0  0  0  0  0  0  0  0
    7.0286    1.3783   20.7775 H   0  0  0  0  0  0  0  0  0  0  0  0
    5.8001    2.9996   21.5247 C   0  0  0  0  0  0  0  0  0  0  0  0
    5.9404    4.2906   22.2754 C   0  0  0  0  0  0  0  0  0  0  0  0
    4.8196    5.2874   22.2691 N   0  0  0  0  0  0  0  0  0  0  0  0
    3.5585    4.9933   21.5119 C   0  0  0  0  0  0  0  0  0  0  0  0
    3.4183    3.7024   20.7612 C   0  0  0  0  0  0  0  0  0  0  0  0
    4.5391    2.7055   20.7675 N   0  0  0  0  0  0  0  0  0  0  0  0
 29 30  1  0  0  0
 30 31  1  0  0  0
 31 32  2  0  0  0
 31 28  1  0  0  0
 28  1  1  0  0  0
  1  2  1  0  0  0
  3  2  1  0  0  0
  3  4  1  0  0  0
  4  5  2  0  0  0
  4  6  1  0  0  0
  6 18  1  0  0  0
 18 19  2  0  0  0
 19 20  1  0  0  0
 20 21  2  0  0  0
 21 22  1  0  0  0
 22 23  2  0  0  0
 23 24  1  0  0  0
 24 25  2  0  0  0
 25 26  1  0  0  0
 26 27  2  0  0  0
  6  7  1  0  0  0
  7  8  1  0  0  0
  8 34  1  0  0  0
 34 35  1  0  0  0
 35 37  1  0  0  0
 37 38  2  0  0  0
 38 39  1  0  0  0
 39 40  2  0  0  0
 40 41  1  0  0  0
 41 42  2  0  0  0
  3  9  1  0  0  0
  9 10  2  0  0  0
 10 11  1  0  0  0
 11 12  1  0  0  0
 11 13  2  0  0  0
 13 14  1  0  0  0
 14 15  2  0  0  0
 15 16  1  0  0  0
 16 17  2  0  0  0
 16  1  1  0  0  0
  8  3  1  0  0  0
 42 37  1  0  0  0
 15  9  1  0  0  0
 27 18  1  0  0  0
 27 22  1  0  0  0
 30 33  1  0  0  0
 35 36  1  0  0  0
M  END
> <minimizedAffinity>
-8.17323

> <CNNscore>
0.1624681205

> <CNNaffinity>
7.0274567604

> <CNN_VS>
1.1417376995

> <CNNaffinity_variance>
0.1725971401

$$$$



 42 47  0  0  0  0  0  0  0  0999 V2000
    9.8533    1.0091   23.7796 N   0  0  0  0  0  0  0  0  0  0  0  0
    8.5085    0.5215   24.2309 C   0  0  0  0  0  0  0  0  0  0  0  0
    8.4004   -0.7331   25.0460 C   0  0  0  0  0  0  0  0  0  0  0  0
    8.1371   -1.9639   25.8619 C   0  0  0  0  0  0  0  0  0  0  0  0
    8.7396   -2.8794   26.3864 O   0  0  0  0  0  0  0  0  0  0  0  0
    6.6568   -2.0670   26.0808 N   0  0  0  0  0  0  0  0  0  0  0  0
    6.0051   -0.8999   25.4002 C   0  0  0  0  0  0  0  0  0  0  0  0
    7.0828   -0.0755   24.7606 C   0  0  0  0  0  0  0  0  0  0  0  0
    9.6372   -1.5000   25.4098 C   0  0  0  0  0  0  0  0  0  0  0  0
    9.5291   -2.7545   26.2249 C   0  0  0  0  0  0  0  0  0  0  0  0
   10.7658   -3.5214   26.5887 C   0  0  0  0  0  0  0  0  0  0  0  0
   10.6577   -4.7760   27.4038 Cl  0  0  0  0  0  0  0  0  0  0  0  0
   12.1106   -3.0338   26.1374 C   0  0  0  0  0  0  0  0  0  0  0  0
   12.2187   -1.7793   25.3223 C   0  0  0  0  0  0  0  0  0  0  0  0
   10.9820   -1.0124   24.9585 C   0  0  0  0  0  0  0  0  0  0  0  0
   11.0900    0.2422   24.1434 C   0  0  0  0  0  0  0  0  0  0  0  0
   12.4349    0.7299   23.6920 O   0  0  0  0  0  0  0  0  0  0  0  0
    5.9518   -3.1475   26.8460 C   0  0  0  0  0  0  0  0  0  0  0  0
    5.8158   -3.0446   28.3363 C   0  0  0  0  0  0  0  0  0  0  0  0
    5.1109   -4.1251   29.1015 N   0  0  0  0  0  0  0  0  0  0  0  0
    4.5420   -5.3086   28.3764 C   0  0  0  0  0  0  0  0  0  0  0  0
    4.6780   -5.4115   26.8861 C   0  0  0  0  0  0  0  0  0  0  0  0
    4.1091   -6.5950   26.1610 C   0  0  0  0  0  0  0  0  0  0  0  0
    4.2451   -6.6979   24.6707 C   0  0  0  0  0  0  0  0  0  0  0  0
    4.9501   -5.6174   23.9056 C   0  0  0  0  0  0  0  0  0  0  0  0
    5.5190   -4.4339   24.6306 C   0  0  0  0  0  0  0  0  0  0  0  0
    5.3829   -4.3310   26.1209 C   0  0  0  0  0  0  0  0  0  0  0  0
    9.9614    2.2637   22.9644 C   0  0  0  0  0  0  0  0  0  0  0  0
    6.8965    4.6626   22.1889 C   0  0  0  0  0  0  0  0  0  0  0  0
    8.1159    4.0887   22.8473 N   0  0  0  0  0  0  0  0  0  0  0  0
    8.7419    2.8377   22.3060 C   0  0  0  0  0  0  0  0  0  0  0  0
    8.1485    2.1605   21.1062 O   0  0  0  0  0  0  0  0  0  0  0  0
    8.5054    4.5331   23.6347 H   0  0  0  0  0  0  0  0  0  0  0  0
    6.8786    1.1852   23.9738 C   0  0  0  0  0  0  0  0  0  0  0  0
    5.4964    1.5960   23.5609 N   0  0  0  0  0  0  0  0  0  0  0  0
    4.8797    1.9838   24.2230 H   0  0  0  0  0  0  0  0  0  0  0  0
    5.0537    1.4159   22.1390 C   0  0  0  0  0  0  0  0  0  0  0  0
    4.2098    2.4648   21.4777 C   0  0  0  0  0  0  0  0  0  0  0  0
    3.7671    2.2848   20.0559 N   0  0  0  0  0  0  0  0  0  0  0  0
    4.1684    1.0557   19.2954 C   0  0  0  0  0  0  0  0  0  0  0  0
    5.0123    0.0067   19.9567 C   0  0  0  0  0  0  0  0  0  0  0  0
    5.4550    0.1868   21.3786 N   0  0  0  0  0  0  0  0  0  0  0  0
 29 30  1  0  0  0
 30 31  1  0  0  0
 31 32  2  0  0  0
 31 28  1  0  0  0
 28  1  1  0  0  0
  1  2  1  0  0  0
  3  2  1  0  0  0
  3  4  1  0  0  0
  4  5  2  0  0  0
  4  6  1  0  0  0
  6 18  1  0  0  0
 18 19  2  0  0  0
 19 20  1  0  0  0
 20 21  2  0  0  0
 21 22  1  0  0  0
 22 23  2  0  0  0
 23 24  1  0  0  0
 24 25  2  0  0  0
 25 26  1  0  0  0
 26 27  2  0  0  0
  6  7  1  0  0  0
  7  8  1  0  0  0
  8 34  1  0  0  0
 34 35  1  0  0  0
 35 37  1  0  0  0
 37 38  2  0  0  0
 38 39  1  0  0  0
 39 40  2  0  0  0
 40 41  1  0  0  0
 41 42  2  0  0  0
  3  9  1  0  0  0
  9 10  2  0  0  0
 10 11  1  0  0  0
 11 12  1  0  0  0
 11 13  2  0  0  0
 13 14  1  0  0  0
 14 15  2  0  0  0
 15 16  1  0  0  0
 16 17  2  0  0  0
 16  1  1  0  0  0
  8  3  1  0  0  0
 42 37  1  0  0  0
 15  9  1  0  0  0
 27 18  1  0  0  0
 27 22  1  0  0  0
 30 33  1  0  0  0
 35 36  1  0  0  0
M  END
> <minimizedAffinity>
-7.87387

> <CNNscore>
0.1579629928

> <CNNaffinity>
6.5099463463

> <CNN_VS>
1.0283305645

> <CNNaffinity_variance>
0.3310270011

$$$$
