


 35 40  0  0  0  0  0  0  0  0999 V2000
    7.4588   -3.3428   23.3423 C   0  0  0  0  0  0  0  0  0  0  0  0
    7.6521   -2.0464   22.6129 C   0  0  0  0  0  0  0  0  0  0  0  0
    6.5556   -1.7904   21.6218 C   0  0  0  0  0  0  0  0  0  0  0  0
    6.8364   -0.4799   20.9481 N   0  0  0  0  0  0  0  0  0  0  0  0
    8.1064    0.0740   21.5229 C   0  0  0  0  0  0  0  0  0  0  0  0
    8.7578    1.3688   21.1365 O   0  0  0  0  0  0  0  0  0  0  0  0
    8.6105   -0.8941   22.5517 C   0  0  0  0  0  0  0  0  0  0  0  0
    9.4757    0.3191   22.3799 C   0  0  0  0  0  0  0  0  0  0  0  0
   10.7198    0.4757   23.2031 N   0  0  0  0  0  0  0  0  0  0  0  0
   11.0988   -0.5808   24.1981 C   0  0  0  0  0  0  0  0  0  0  0  0
   12.3429   -0.4242   25.0213 O   0  0  0  0  0  0  0  0  0  0  0  0
   10.2336   -1.7941   24.3699 C   0  0  0  0  0  0  0  0  0  0  0  0
   10.6125   -2.8507   25.3649 C   0  0  0  0  0  0  0  0  0  0  0  0
    9.7473   -4.0639   25.5367 C   0  0  0  0  0  0  0  0  0  0  0  0
    8.5032   -4.2205   24.7135 C   0  0  0  0  0  0  0  0  0  0  0  0
    7.6380   -5.4338   24.8854 Cl  0  0  0  0  0  0  0  0  0  0  0  0
    8.1243   -3.1640   23.7185 C   0  0  0  0  0  0  0  0  0  0  0  0
    8.9895   -1.9508   23.5468 C   0  0  0  0  0  0  0  0  0  0  0  0
    5.9949    0.1637   19.8862 C   0  0  0  0  0  0  0  0  0  0  0  0
    6.3838    0.0388   18.4430 C   0  0  0  0  0  0  0  0  0  0  0  0
    5.5424    0.6823   17.3810 N   0  0  0  0  0  0  0  0  0  0  0  0
    4.3119    1.4508   17.7624 C   0  0  0  0  0  0  0  0  0  0  0  0
    3.9230    1.5757   19.2058 C   0  0  0  0  0  0  0  0  0  0  0  0
    2.6925    2.3443   19.5871 C   0  0  0  0  0  0  0  0  0  0  0  0
    2.3037    2.4691   21.0305 C   0  0  0  0  0  0  0  0  0  0  0  0
    3.1452    1.8256   22.0923 C   0  0  0  0  0  0  0  0  0  0  0  0
    4.3756    1.0571   21.7109 C   0  0  0  0  0  0  0  0  0  0  0  0
    4.7645    0.9322   20.2677 C   0  0  0  0  0  0  0  0  0  0  0  0
   11.5850    1.6890   23.0313 C   0  0  0  0  0  0  0  0  0  0  0  0
   11.1800    2.9930   23.6520 C   0  0  0  0  0  0  0  0  0  0  0  0
   11.4240    4.2796   22.9206 N   0  0  0  0  0  0  0  0  0  0  0  0
   10.8759    5.6729   23.0133 C   0  0  0  0  0  0  0  0  0  0  0  0
   11.7690    6.0992   21.8861 C   0  0  0  0  0  0  0  0  0  0  0  0
   12.3171    4.7061   21.7934 C   0  0  0  0  0  0  0  0  0  0  0  0
   11.5898    5.1546   22.4232 H   0  0  0  0  0  0  0  0  0  0  0  0
  2  1  1  0  0  0
  2  3  1  0  0  0
  3  4  1  0  0  0
  4 19  1  0  0  0
 19 20  2  0  0  0
 20 21  1  0  0  0
 21 22  2  0  0  0
 22 23  1  0  0  0
 23 24  2  0  0  0
 24 25  1  0  0  0
 25 26  2  0  0  0
 26 27  1  0  0  0
 27 28  2  0  0  0
  4  5  1  0  0  0
  5  6  2  0  0  0
  5  7  1  0  0  0
  7  8  1  0  0  0
  8  9  1  0  0  0
  9 29  1  0  0  0
 29 30  1  0  0  0
 30 31  1  0  0  0
 31 32  1  0  0  0
 32 33  1  0  0  0
 33 34  1  0  0  0
  9 10  1  0  0  0
 10 11  2  0  0  0
 10 12  1  0  0  0
 12 13  2  0  0  0
 13 14  1  0  0  0
 14 15  2  0  0  0
 15 16  1  0  0  0
 15 17  1  0  0  0
 17 18  2  0  0  0
  7  2  1  0  0  0
 34 31  1  0  0  0
 18 12  1  0  0  0
 28 19  1  0  0  0
 18  7  1  0  0  0
 28 23  1  0  0  0
 31 35  1  0  0  0
M  CHG 1  31   1
M  END
> <minimizedAffinity>
-9.02015

> <CNNscore>
0.6461644173

> <CNNaffinity>
6.9906091690

> <CNN_VS>
4.5170826912

> <CNNaffinity_variance>
0.0198579486

$$$$



 35 40  0  0  0  0  0  0  0  0999 V2000
    9.2093   -1.0381   23.5855 C   0  0  0  0  0  0  0  0  0  0  0  0
    8.0210   -1.4080   22.7481 C   0  0  0  0  0  0  0  0  0  0  0  0
    7.6406   -0.3121   21.7972 C   0  0  0  0  0  0  0  0  0  0  0  0
    6.4504   -0.7740   21.0098 N   0  0  0  0  0  0  0  0  0  0  0  0
    6.0952   -2.1554   21.4742 C   0  0  0  0  0  0  0  0  0  0  0  0
    4.9673   -2.9972   20.9552 O   0  0  0  0  0  0  0  0  0  0  0  0
    7.0659   -2.5473   22.5485 C   0  0  0  0  0  0  0  0  0  0  0  0
    6.0418   -3.5985   22.2387 C   0  0  0  0  0  0  0  0  0  0  0  0
    6.0550   -4.9009   22.9827 N   0  0  0  0  0  0  0  0  0  0  0  0
    7.0924   -5.1521   24.0366 C   0  0  0  0  0  0  0  0  0  0  0  0
    7.1056   -6.4544   24.7807 O   0  0  0  0  0  0  0  0  0  0  0  0
    8.1166   -4.1008   24.3465 C   0  0  0  0  0  0  0  0  0  0  0  0
    9.1539   -4.3520   25.4004 C   0  0  0  0  0  0  0  0  0  0  0  0
   10.1781   -3.3008   25.7102 C   0  0  0  0  0  0  0  0  0  0  0  0
   10.1648   -1.9984   24.9662 C   0  0  0  0  0  0  0  0  0  0  0  0
   11.1891   -0.9471   25.2761 Cl  0  0  0  0  0  0  0  0  0  0  0  0
    9.1275   -1.7472   23.9123 C   0  0  0  0  0  0  0  0  0  0  0  0
    8.1033   -2.7984   23.6025 C   0  0  0  0  0  0  0  0  0  0  0  0
    5.7401    0.0081   19.9451 C   0  0  0  0  0  0  0  0  0  0  0  0
    6.2172   -0.0542   18.5244 C   0  0  0  0  0  0  0  0  0  0  0  0
    5.5069    0.7279   17.4597 N   0  0  0  0  0  0  0  0  0  0  0  0
    4.3194    1.5723   17.8157 C   0  0  0  0  0  0  0  0  0  0  0  0
    3.8422    1.6346   19.2364 C   0  0  0  0  0  0  0  0  0  0  0  0
    2.6546    2.4790   19.5923 C   0  0  0  0  0  0  0  0  0  0  0  0
    2.1774    2.5412   21.0131 C   0  0  0  0  0  0  0  0  0  0  0  0
    2.8878    1.7591   22.0777 C   0  0  0  0  0  0  0  0  0  0  0  0
    4.0753    0.9147   21.7218 C   0  0  0  0  0  0  0  0  0  0  0  0
    4.5525    0.8525   20.3011 C   0  0  0  0  0  0  0  0  0  0  0  0
    5.0308   -5.9521   22.6728 C   0  0  0  0  0  0  0  0  0  0  0  0
    3.8017   -6.0757   23.5238 C   0  0  0  0  0  0  0  0  0  0  0  0
    3.9113   -5.9856   25.0170 N   0  0  0  0  0  0  0  0  0  0  0  0
    3.9927   -6.9806   26.1366 C   0  0  0  0  0  0  0  0  0  0  0  0
    4.0662   -5.8581   27.1288 C   0  0  0  0  0  0  0  0  0  0  0  0
    3.9848   -4.8631   26.0094 C   0  0  0  0  0  0  0  0  0  0  0  0
    3.9858   -5.9243   26.0325 H   0  0  0  0  0  0  0  0  0  0  0  0
  2  1  1  0  0  0
  2  3  1  0  0  0
  3  4  1  0  0  0
  4 19  1  0  0  0
 19 20  2  0  0  0
 20 21  1  0  0  0
 21 22  2  0  0  0
 22 23  1  0  0  0
 23 24  2  0  0  0
 24 25  1  0  0  0
 25 26  2  0  0  0
 26 27  1  0  0  0
 27 28  2  0  0  0
  4  5  1  0  0  0
  5  6  2  0  0  0
  5  7  1  0  0  0
  7  8  1  0  0  0
  8  9  1  0  0  0
  9 29  1  0  0  0
 29 30  1  0  0  0
 30 31  1  0  0  0
 31 32  1  0  0  0
 32 33  1  0  0  0
 33 34  1  0  0  0
  9 10  1  0  0  0
 10 11  2  0  0  0
 10 12  1  0  0  0
 12 13  2  0  0  0
 13 14  1  0  0  0
 14 15  2  0  0  0
 15 16  1  0  0  0
 15 17  1  0  0  0
 17 18  2  0  0  0
  7  2  1  0  0  0
 34 31  1  0  0  0
 18 12  1  0  0  0
 28 19  1  0  0  0
 18  7  1  0  0  0
 28 23  1  0  0  0
 31 35  1  0  0  0
M  CHG 1  31   1
M  END
> <minimizedAffinity>
-7.82436

> <CNNscore>
0.6414715648

> <CNNaffinity>
6.6124391556

> <CNN_VS>
4.2416915894

> <CNNaffinity_variance>
0.0155263450

$$$$



 35 40  0  0  0  0  0  0  0  0999 V2000
   10.1360   -2.5969   26.0862 C   0  0  0  0  0  0  0  0  0  0  0  0
    9.0405   -1.6464   25.7033 C   0  0  0  0  0  0  0  0  0  0  0  0
    7.7230   -2.0355   26.3056 C   0  0  0  0  0  0  0  0  0  0  0  0
    6.6985   -1.0312   25.8676 N   0  0  0  0  0  0  0  0  0  0  0  0
    7.3828   -0.0215   24.9946 C   0  0  0  0  0  0  0  0  0  0  0  0
    6.7336    1.1608   24.3384 O   0  0  0  0  0  0  0  0  0  0  0  0
    8.8303   -0.4017   24.8931 C   0  0  0  0  0  0  0  0  0  0  0  0
    8.4693    0.8357   24.1260 C   0  0  0  0  0  0  0  0  0  0  0  0
    9.5217    1.5711   23.3504 N   0  0  0  0  0  0  0  0  0  0  0  0
   10.9352    1.0691   23.3419 C   0  0  0  0  0  0  0  0  0  0  0  0
   11.9876    1.8046   22.5663 O   0  0  0  0  0  0  0  0  0  0  0  0
   11.2962   -0.1683   24.1091 C   0  0  0  0  0  0  0  0  0  0  0  0
   12.7097   -0.6703   24.1006 C   0  0  0  0  0  0  0  0  0  0  0  0
   13.0707   -1.9076   24.8677 C   0  0  0  0  0  0  0  0  0  0  0  0
   12.0183   -2.6430   25.6433 C   0  0  0  0  0  0  0  0  0  0  0  0
   12.3794   -3.8805   26.4104 Cl  0  0  0  0  0  0  0  0  0  0  0  0
   10.6048   -2.1411   25.6518 C   0  0  0  0  0  0  0  0  0  0  0  0
   10.2438   -0.9037   24.8846 C   0  0  0  0  0  0  0  0  0  0  0  0
    5.2448   -1.0359   26.2376 C   0  0  0  0  0  0  0  0  0  0  0  0
    4.2256   -0.4925   25.2807 C   0  0  0  0  0  0  0  0  0  0  0  0
    2.7720   -0.4972   25.6507 N   0  0  0  0  0  0  0  0  0  0  0  0
    2.3376   -1.0452   26.9777 C   0  0  0  0  0  0  0  0  0  0  0  0
    3.3569   -1.5886   27.9347 C   0  0  0  0  0  0  0  0  0  0  0  0
    2.9225   -2.1366   29.2618 C   0  0  0  0  0  0  0  0  0  0  0  0
    3.9418   -2.6800   30.2187 C   0  0  0  0  0  0  0  0  0  0  0  0
    5.3954   -2.6753   29.8486 C   0  0  0  0  0  0  0  0  0  0  0  0
    5.8297   -2.1273   28.5216 C   0  0  0  0  0  0  0  0  0  0  0  0
    4.8105   -1.5839   27.5647 C   0  0  0  0  0  0  0  0  0  0  0  0
    9.1606    2.8086   22.5832 C   0  0  0  0  0  0  0  0  0  0  0  0
    9.0487    4.1252   23.2931 C   0  0  0  0  0  0  0  0  0  0  0  0
    9.9628    5.2559   22.9247 N   0  0  0  0  0  0  0  0  0  0  0  0
    9.8295    6.7484   22.8562 C   0  0  0  0  0  0  0  0  0  0  0  0
   11.2556    6.8550   22.4036 C   0  0  0  0  0  0  0  0  0  0  0  0
   11.3890    5.3626   22.4721 C   0  0  0  0  0  0  0  0  0  0  0  0
   10.5844    6.0248   22.6741 H   0  0  0  0  0  0  0  0  0  0  0  0
  2  1  1  0  0  0
  2  3  1  0  0  0
  3  4  1  0  0  0
  4 19  1  0  0  0
 19 20  2  0  0  0
 20 21  1  0  0  0
 21 22  2  0  0  0
 22 23  1  0  0  0
 23 24  2  0  0  0
 24 25  1  0  0  0
 25 26  2  0  0  0
 26 27  1  0  0  0
 27 28  2  0  0  0
  4  5  1  0  0  0
  5  6  2  0  0  0
  5  7  1  0  0  0
  7  8  1  0  0  0
  8  9  1  0  0  0
  9 29  1  0  0  0
 29 30  1  0  0  0
 30 31  1  0  0  0
 31 32  1  0  0  0
 32 33  1  0  0  0
 33 34  1  0  0  0
  9 10  1  0  0  0
 10 11  2  0  0  0
 10 12  1  0  0  0
 12 13  2  0  0  0
 13 14  1  0  0  0
 14 15  2  0  0  0
 15 16  1  0  0  0
 15 17  1  0  0  0
 17 18  2  0  0  0
  7  2  1  0  0  0
 34 31  1  0  0  0
 18 12  1  0  0  0
 28 19  1  0  0  0
 18  7  1  0  0  0
 28 23  1  0  0  0
 31 35  1  0  0  0
M  CHG 1  31   1
M  END
> <minimizedAffinity>
-7.63163

> <CNNscore>
0.6293414831

> <CNNaffinity>
6.7206358910

> <CNN_VS>
4.2295751572

> <CNNaffinity_variance>
0.2643166482

$$$$



 35 40  0  0  0  0  0  0  0  0999 V2000
   10.7166   -1.2530   22.5557 C   0  0  0  0  0  0  0  0  0  0  0  0
    9.2194   -1.1853   22.4938 C   0  0  0  0  0  0  0  0  0  0  0  0
    8.7369   -0.5809   21.2085 C   0  0  0  0  0  0  0  0  0  0  0  0
    7.2375   -0.5569   21.2417 N   0  0  0  0  0  0  0  0  0  0  0  0
    6.7933   -1.1465   22.5475 C   0  0  0  0  0  0  0  0  0  0  0  0
    5.3735   -1.3176   23.0000 O   0  0  0  0  0  0  0  0  0  0  0  0
    8.0182   -1.5349   23.3214 C   0  0  0  0  0  0  0  0  0  0  0  0
    6.7297   -1.8279   24.0312 C   0  0  0  0  0  0  0  0  0  0  0  0
    6.7498   -2.4556   25.3934 N   0  0  0  0  0  0  0  0  0  0  0  0
    8.0584   -2.7902   26.0458 C   0  0  0  0  0  0  0  0  0  0  0  0
    8.0785   -3.4179   27.4080 O   0  0  0  0  0  0  0  0  0  0  0  0
    9.3470   -2.4972   25.3359 C   0  0  0  0  0  0  0  0  0  0  0  0
   10.6556   -2.8318   25.9883 C   0  0  0  0  0  0  0  0  0  0  0  0
   11.9440   -2.5387   25.2784 C   0  0  0  0  0  0  0  0  0  0  0  0
   11.9239   -1.9110   23.9162 C   0  0  0  0  0  0  0  0  0  0  0  0
   13.2124   -1.6179   23.2063 Cl  0  0  0  0  0  0  0  0  0  0  0  0
   10.6153   -1.5764   23.2639 C   0  0  0  0  0  0  0  0  0  0  0  0
    9.3269   -1.8695   23.9737 C   0  0  0  0  0  0  0  0  0  0  0  0
    6.3398   -0.0350   20.1592 C   0  0  0  0  0  0  0  0  0  0  0  0
    6.3341   -0.6891   18.8094 C   0  0  0  0  0  0  0  0  0  0  0  0
    5.4364   -0.1672   17.7269 N   0  0  0  0  0  0  0  0  0  0  0  0
    4.5446    1.0088   17.9943 C   0  0  0  0  0  0  0  0  0  0  0  0
    4.5503    1.6629   19.3441 C   0  0  0  0  0  0  0  0  0  0  0  0
    3.6584    2.8390   19.6115 C   0  0  0  0  0  0  0  0  0  0  0  0
    3.6642    3.4931   20.9614 C   0  0  0  0  0  0  0  0  0  0  0  0
    4.5619    2.9711   22.0438 C   0  0  0  0  0  0  0  0  0  0  0  0
    5.4537    1.7951   21.7764 C   0  0  0  0  0  0  0  0  0  0  0  0
    5.4480    1.1410   20.4267 C   0  0  0  0  0  0  0  0  0  0  0  0
    5.4613   -2.7487   26.1033 C   0  0  0  0  0  0  0  0  0  0  0  0
    4.8920   -1.7501   27.0669 C   0  0  0  0  0  0  0  0  0  0  0  0
    5.1498   -1.8957   28.5374 N   0  0  0  0  0  0  0  0  0  0  0  0
    5.2949   -3.0541   29.4793 C   0  0  0  0  0  0  0  0  0  0  0  0
    5.5145   -2.1015   30.6170 C   0  0  0  0  0  0  0  0  0  0  0  0
    5.3695   -0.9432   29.6752 C   0  0  0  0  0  0  0  0  0  0  0  0
    5.3252   -1.9947   29.5373 H   0  0  0  0  0  0  0  0  0  0  0  0
  2  1  1  0  0  0
  2  3  1  0  0  0
  3  4  1  0  0  0
  4 19  1  0  0  0
 19 20  2  0  0  0
 20 21  1  0  0  0
 21 22  2  0  0  0
 22 23  1  0  0  0
 23 24  2  0  0  0
 24 25  1  0  0  0
 25 26  2  0  0  0
 26 27  1  0  0  0
 27 28  2  0  0  0
  4  5  1  0  0  0
  5  6  2  0  0  0
  5  7  1  0  0  0
  7  8  1  0  0  0
  8  9  1  0  0  0
  9 29  1  0  0  0
 29 30  1  0  0  0
 30 31  1  0  0  0
 31 32  1  0  0  0
 32 33  1  0  0  0
 33 34  1  0  0  0
  9 10  1  0  0  0
 10 11  2  0  0  0
 10 12  1  0  0  0
 12 13  2  0  0  0
 13 14  1  0  0  0
 14 15  2  0  0  0
 15 16  1  0  0  0
 15 17  1  0  0  0
 17 18  2  0  0  0
  7  2  1  0  0  0
 34 31  1  0  0  0
 18 12  1  0  0  0
 28 19  1  0  0  0
 18  7  1  0  0  0
 28 23  1  0  0  0
 31 35  1  0  0  0
M  CHG 1  31   1
M  END
> <minimizedAffinity>
-8.31520

> <CNNscore>
0.5910947919

> <CNNaffinity>
6.6573791504

> <CNN_VS>
3.9351420403

> <CNNaffinity_variance>
0.1374183595

$$$$



 35 40  0  0  0  0  0  0  0  0999 V2000
   10.5612   -2.7500   26.1425 C   0  0  0  0  0  0  0  0  0  0  0  0
    9.3215   -1.9833   25.7881 C   0  0  0  0  0  0  0  0  0  0  0  0
    8.0979   -2.5650   26.4319 C   0  0  0  0  0  0  0  0  0  0  0  0
    6.9184   -1.7349   26.0200 N   0  0  0  0  0  0  0  0  0  0  0  0
    7.4131   -0.6401   25.1218 C   0  0  0  0  0  0  0  0  0  0  0  0
    6.5704    0.4217   24.4796 O   0  0  0  0  0  0  0  0  0  0  0  0
    8.8983   -0.7937   24.9784 C   0  0  0  0  0  0  0  0  0  0  0  0
    8.3285    0.3659   24.2164 C   0  0  0  0  0  0  0  0  0  0  0  0
    9.2319    1.2472   23.4057 N   0  0  0  0  0  0  0  0  0  0  0  0
   10.7050    0.9690   23.3571 C   0  0  0  0  0  0  0  0  0  0  0  0
   11.6084    1.8503   22.5464 O   0  0  0  0  0  0  0  0  0  0  0  0
   11.2749   -0.1906   24.1191 C   0  0  0  0  0  0  0  0  0  0  0  0
   12.7480   -0.4689   24.0704 C   0  0  0  0  0  0  0  0  0  0  0  0
   13.3178   -1.6285   24.8324 C   0  0  0  0  0  0  0  0  0  0  0  0
   12.4144   -2.5098   25.6431 C   0  0  0  0  0  0  0  0  0  0  0  0
   12.9843   -3.6694   26.4051 Cl  0  0  0  0  0  0  0  0  0  0  0  0
   10.9413   -2.2315   25.6918 C   0  0  0  0  0  0  0  0  0  0  0  0
   10.3715   -1.0720   24.9298 C   0  0  0  0  0  0  0  0  0  0  0  0
    5.4943   -1.9599   26.4338 C   0  0  0  0  0  0  0  0  0  0  0  0
    4.7497   -0.8879   27.1727 C   0  0  0  0  0  0  0  0  0  0  0  0
    3.3255   -1.1129   27.5865 N   0  0  0  0  0  0  0  0  0  0  0  0
    2.6461   -2.4100   27.2613 C   0  0  0  0  0  0  0  0  0  0  0  0
    3.3908   -3.4821   26.5223 C   0  0  0  0  0  0  0  0  0  0  0  0
    2.7113   -4.7793   26.1971 C   0  0  0  0  0  0  0  0  0  0  0  0
    3.4561   -5.8514   25.4581 C   0  0  0  0  0  0  0  0  0  0  0  0
    4.8801   -5.6263   25.0444 C   0  0  0  0  0  0  0  0  0  0  0  0
    5.5596   -4.3291   25.3696 C   0  0  0  0  0  0  0  0  0  0  0  0
    4.8149   -3.2571   26.1085 C   0  0  0  0  0  0  0  0  0  0  0  0
    8.6620    2.4069   22.6437 C   0  0  0  0  0  0  0  0  0  0  0  0
    8.3648    3.6958   23.3510 C   0  0  0  0  0  0  0  0  0  0  0  0
    9.2446    4.8909   23.1331 N   0  0  0  0  0  0  0  0  0  0  0  0
   10.6914    5.0952   22.7939 C   0  0  0  0  0  0  0  0  0  0  0  0
   10.4889    6.5812   22.8250 C   0  0  0  0  0  0  0  0  0  0  0  0
    9.0422    6.3769   23.1643 C   0  0  0  0  0  0  0  0  0  0  0  0
    9.8429    5.7036   22.9850 H   0  0  0  0  0  0  0  0  0  0  0  0
  2  1  1  0  0  0
  2  3  1  0  0  0
  3  4  1  0  0  0
  4 19  1  0  0  0
 19 20  2  0  0  0
 20 21  1  0  0  0
 21 22  2  0  0  0
 22 23  1  0  0  0
 23 24  2  0  0  0
 24 25  1  0  0  0
 25 26  2  0  0  0
 26 27  1  0  0  0
 27 28  2  0  0  0
  4  5  1  0  0  0
  5  6  2  0  0  0
  5  7  1  0  0  0
  7  8  1  0  0  0
  8  9  1  0  0  0
  9 29  1  0  0  0
 29 30  1  0  0  0
 30 31  1  0  0  0
 31 32  1  0  0  0
 32 33  1  0  0  0
 33 34  1  0  0  0
  9 10  1  0  0  0
 10 11  2  0  0  0
 10 12  1  0  0  0
 12 13  2  0  0  0
 13 14  1  0  0  0
 14 15  2  0  0  0
 15 16  1  0  0  0
 15 17  1  0  0  0
 17 18  2  0  0  0
  7  2  1  0  0  0
 34 31  1  0  0  0
 18 12  1  0  0  0
 28 19  1  0  0  0
 18  7  1  0  0  0
 28 23  1  0  0  0
 31 35  1  0  0  0
M  CHG 1  31   1
M  END
> <minimizedAffinity>
-7.81221

> <CNNscore>
0.4520019889

> <CNNaffinity>
6.7024359703

> <CNN_VS>
3.0295143127

> <CNNaffinity_variance>
0.3436399102

$$$$



 35 40  0  0  0  0  0  0  0  0999 V2000
   10.8388   -2.2468   25.5170 C   0  0  0  0  0  0  0  0  0  0  0  0
    9.3694   -2.2433   25.2150 C   0  0  0  0  0  0  0  0  0  0  0  0
    8.6312   -3.2840   26.0036 C   0  0  0  0  0  0  0  0  0  0  0  0
    7.1797   -3.2021   25.6346 N   0  0  0  0  0  0  0  0  0  0  0  0
    7.0208   -2.1108   24.6179 C   0  0  0  0  0  0  0  0  0  0  0  0
    5.7343   -1.6865   23.9736 O   0  0  0  0  0  0  0  0  0  0  0  0
    8.3741   -1.5182   24.3585 C   0  0  0  0  0  0  0  0  0  0  0  0
    7.2693   -0.8868   23.5644 C   0  0  0  0  0  0  0  0  0  0  0  0
    7.5739    0.2341   22.6153 N   0  0  0  0  0  0  0  0  0  0  0  0
    8.9832    0.7236   22.4603 C   0  0  0  0  0  0  0  0  0  0  0  0
    9.2878    1.8446   21.5112 O   0  0  0  0  0  0  0  0  0  0  0  0
   10.0881    0.0923   23.2545 C   0  0  0  0  0  0  0  0  0  0  0  0
   11.4975    0.5818   23.0996 C   0  0  0  0  0  0  0  0  0  0  0  0
   12.6022   -0.0496   23.8937 C   0  0  0  0  0  0  0  0  0  0  0  0
   12.2977   -1.1705   24.8428 C   0  0  0  0  0  0  0  0  0  0  0  0
   13.4026   -1.8019   25.6370 Cl  0  0  0  0  0  0  0  0  0  0  0  0
   10.8884   -1.6600   24.9978 C   0  0  0  0  0  0  0  0  0  0  0  0
    9.7836   -1.0286   24.2036 C   0  0  0  0  0  0  0  0  0  0  0  0
    6.0800   -4.0608   26.1855 C   0  0  0  0  0  0  0  0  0  0  0  0
    5.5182   -5.1805   25.3607 C   0  0  0  0  0  0  0  0  0  0  0  0
    4.4185   -6.0392   25.9116 N   0  0  0  0  0  0  0  0  0  0  0  0
    3.8809   -5.7781   27.2873 C   0  0  0  0  0  0  0  0  0  0  0  0
    4.4428   -4.6583   28.1122 C   0  0  0  0  0  0  0  0  0  0  0  0
    3.9050   -4.3972   29.4880 C   0  0  0  0  0  0  0  0  0  0  0  0
    4.4670   -3.2774   30.3127 C   0  0  0  0  0  0  0  0  0  0  0  0
    5.5666   -2.4188   29.7618 C   0  0  0  0  0  0  0  0  0  0  0  0
    6.1043   -2.6799   28.3861 C   0  0  0  0  0  0  0  0  0  0  0  0
    5.5424   -3.7996   27.5613 C   0  0  0  0  0  0  0  0  0  0  0  0
    6.4690    0.8655   21.8211 C   0  0  0  0  0  0  0  0  0  0  0  0
    6.6787    2.2036   21.1765 C   0  0  0  0  0  0  0  0  0  0  0  0
    5.6375    3.2744   21.3154 N   0  0  0  0  0  0  0  0  0  0  0  0
    5.5549    4.5860   22.0384 C   0  0  0  0  0  0  0  0  0  0  0  0
    4.1651    4.7887   21.5118 C   0  0  0  0  0  0  0  0  0  0  0  0
    4.2477    3.4771   20.7888 C   0  0  0  0  0  0  0  0  0  0  0  0
    4.9296    4.0025   21.4099 H   0  0  0  0  0  0  0  0  0  0  0  0
  2  1  1  0  0  0
  2  3  1  0  0  0
  3  4  1  0  0  0
  4 19  1  0  0  0
 19 20  2  0  0  0
 20 21  1  0  0  0
 21 22  2  0  0  0
 22 23  1  0  0  0
 23 24  2  0  0  0
 24 25  1  0  0  0
 25 26  2  0  0  0
 26 27  1  0  0  0
 27 28  2  0  0  0
  4  5  1  0  0  0
  5  6  2  0  0  0
  5  7  1  0  0  0
  7  8  1  0  0  0
  8  9  1  0  0  0
  9 29  1  0  0  0
 29 30  1  0  0  0
 30 31  1  0  0  0
 31 32  1  0  0  0
 32 33  1  0  0  0
 33 34  1  0  0  0
  9 10  1  0  0  0
 10 11  2  0  0  0
 10 12  1  0  0  0
 12 13  2  0  0  0
 13 14  1  0  0  0
 14 15  2  0  0  0
 15 16  1  0  0  0
 15 17  1  0  0  0
 17 18  2  0  0  0
  7  2  1  0  0  0
 34 31  1  0  0  0
 18 12  1  0  0  0
 28 19  1  0  0  0
 18  7  1  0  0  0
 28 23  1  0  0  0
 31 35  1  0  0  0
M  CHG 1  31   1
M  END
> <minimizedAffinity>
-7.70953

> <CNNscore>
0.4148779213

> <CNNaffinity>
6.4676389694

> <CNN_VS>
2.6832807064

> <CNNaffinity_variance>
0.2339403927

$$$$



 35 40  0  0  0  0  0  0  0  0999 V2000
    9.7665   -2.3144   25.9613 C   0  0  0  0  0  0  0  0  0  0  0  0
    9.0636   -1.1236   25.3799 C   0  0  0  0  0  0  0  0  0  0  0  0
    7.6180   -1.0750   25.7775 C   0  0  0  0  0  0  0  0  0  0  0  0
    7.0058    0.1427   25.1512 N   0  0  0  0  0  0  0  0  0  0  0  0
    8.0729    0.8468   24.3667 C   0  0  0  0  0  0  0  0  0  0  0  0
    7.8988    2.1114   23.5791 O   0  0  0  0  0  0  0  0  0  0  0  0
    9.3448    0.0642   24.5080 C   0  0  0  0  0  0  0  0  0  0  0  0
    9.4750    1.2911   23.6550 C   0  0  0  0  0  0  0  0  0  0  0  0
   10.7960    1.6357   23.0336 N   0  0  0  0  0  0  0  0  0  0  0  0
   11.9868    0.7534   23.2652 C   0  0  0  0  0  0  0  0  0  0  0  0
   13.3078    1.0980   22.6437 O   0  0  0  0  0  0  0  0  0  0  0  0
   11.8565   -0.4735   24.1182 C   0  0  0  0  0  0  0  0  0  0  0  0
   13.0473   -1.3558   24.3499 C   0  0  0  0  0  0  0  0  0  0  0  0
   12.9170   -2.5827   25.2029 C   0  0  0  0  0  0  0  0  0  0  0  0
   11.5960   -2.9273   25.8243 C   0  0  0  0  0  0  0  0  0  0  0  0
   11.4658   -4.1543   26.6774 Cl  0  0  0  0  0  0  0  0  0  0  0  0
   10.4053   -2.0451   25.5927 C   0  0  0  0  0  0  0  0  0  0  0  0
   10.5355   -0.8182   24.7397 C   0  0  0  0  0  0  0  0  0  0  0  0
    5.5772    0.5797   25.2859 C   0  0  0  0  0  0  0  0  0  0  0  0
    4.5538    0.1145   24.2929 C   0  0  0  0  0  0  0  0  0  0  0  0
    3.1252    0.5515   24.4275 N   0  0  0  0  0  0  0  0  0  0  0  0
    2.7201    1.4538   25.5552 C   0  0  0  0  0  0  0  0  0  0  0  0
    3.7435    1.9190   26.5483 C   0  0  0  0  0  0  0  0  0  0  0  0
    3.3383    2.8213   27.6761 C   0  0  0  0  0  0  0  0  0  0  0  0
    4.3618    3.2865   28.6691 C   0  0  0  0  0  0  0  0  0  0  0  0
    5.7903    2.8495   28.5344 C   0  0  0  0  0  0  0  0  0  0  0  0
    6.1954    1.9472   27.4067 C   0  0  0  0  0  0  0  0  0  0  0  0
    5.1721    1.4820   26.4137 C   0  0  0  0  0  0  0  0  0  0  0  0
   10.9262    2.8627   22.1805 C   0  0  0  0  0  0  0  0  0  0  0  0
   11.3380    4.1658   22.7988 C   0  0  0  0  0  0  0  0  0  0  0  0
   10.3508    5.2899   22.9063 N   0  0  0  0  0  0  0  0  0  0  0  0
   10.4094    6.7756   22.7077 C   0  0  0  0  0  0  0  0  0  0  0  0
    8.9547    6.8798   23.0584 C   0  0  0  0  0  0  0  0  0  0  0  0
    8.8961    5.3942   23.2569 C   0  0  0  0  0  0  0  0  0  0  0  0
    9.6795    6.0544   22.9794 H   0  0  0  0  0  0  0  0  0  0  0  0
  2  1  1  0  0  0
  2  3  1  0  0  0
  3  4  1  0  0  0
  4 19  1  0  0  0
 19 20  2  0  0  0
 20 21  1  0  0  0
 21 22  2  0  0  0
 22 23  1  0  0  0
 23 24  2  0  0  0
 24 25  1  0  0  0
 25 26  2  0  0  0
 26 27  1  0  0  0
 27 28  2  0  0  0
  4  5  1  0  0  0
  5  6  2  0  0  0
  5  7  1  0  0  0
  7  8  1  0  0  0
  8  9  1  0  0  0
  9 29  1  0  0  0
 29 30  1  0  0  0
 30 31  1  0  0  0
 31 32  1  0  0  0
 32 33  1  0  0  0
 33 34  1  0  0  0
  9 10  1  0  0  0
 10 11  2  0  0  0
 10 12  1  0  0  0
 12 13  2  0  0  0
 13 14  1  0  0  0
 14 15  2  0  0  0
 15 16  1  0  0  0
 15 17  1  0  0  0
 17 18  2  0  0  0
  7  2  1  0  0  0
 34 31  1  0  0  0
 18 12  1  0  0  0
 28 19  1  0  0  0
 18  7  1  0  0  0
 28 23  1  0  0  0
 31 35  1  0  0  0
M  CHG 1  31   1
M  END
> <minimizedAffinity>
-7.64265

> <CNNscore>
0.3623725772

> <CNNaffinity>
6.4568266869

> <CNN_VS>
2.3397769928

> <CNNaffinity_variance>
0.1024148688

$$$$



 35 40  0  0  0  0  0  0  0  0999 V2000
   10.5367   -0.2003   22.7999 C   0  0  0  0  0  0  0  0  0  0  0  0
    9.0856   -0.4972   22.5621 C   0  0  0  0  0  0  0  0  0  0  0  0
    8.5946    0.0953   21.2746 C   0  0  0  0  0  0  0  0  0  0  0  0
    7.1432   -0.2538   21.1275 N   0  0  0  0  0  0  0  0  0  0  0  0
    6.7373   -1.0620   22.3241 C   0  0  0  0  0  0  0  0  0  0  0  0
    5.3708   -1.6216   22.5878 O   0  0  0  0  0  0  0  0  0  0  0  0
    7.9378   -1.2124   23.2108 C   0  0  0  0  0  0  0  0  0  0  0  0
    6.7033   -1.8829   23.7365 C   0  0  0  0  0  0  0  0  0  0  0  0
    6.7480   -2.6193   25.0425 N   0  0  0  0  0  0  0  0  0  0  0  0
    8.0273   -2.6852   25.8229 C   0  0  0  0  0  0  0  0  0  0  0  0
    8.0721   -3.4216   27.1289 O   0  0  0  0  0  0  0  0  0  0  0  0
    9.2619   -2.0147   25.2973 C   0  0  0  0  0  0  0  0  0  0  0  0
   10.5412   -2.0806   26.0777 C   0  0  0  0  0  0  0  0  0  0  0  0
   11.7757   -1.4101   25.5520 C   0  0  0  0  0  0  0  0  0  0  0  0
   11.7310   -0.6737   24.2460 C   0  0  0  0  0  0  0  0  0  0  0  0
   12.9656   -0.0031   23.7203 Cl  0  0  0  0  0  0  0  0  0  0  0  0
   10.4517   -0.6078   23.4656 C   0  0  0  0  0  0  0  0  0  0  0  0
    9.2172   -1.2783   23.9912 C   0  0  0  0  0  0  0  0  0  0  0  0
    6.2539    0.1368   19.9844 C   0  0  0  0  0  0  0  0  0  0  0  0
    6.4035   -0.5380   18.6533 C   0  0  0  0  0  0  0  0  0  0  0  0
    5.5142   -0.1475   17.5102 N   0  0  0  0  0  0  0  0  0  0  0  0
    4.4752    0.9179   17.6984 C   0  0  0  0  0  0  0  0  0  0  0  0
    4.3256    1.5928   19.0297 C   0  0  0  0  0  0  0  0  0  0  0  0
    3.2865    2.6582   19.2179 C   0  0  0  0  0  0  0  0  0  0  0  0
    3.1370    3.3330   20.5492 C   0  0  0  0  0  0  0  0  0  0  0  0
    4.0263    2.9424   21.6921 C   0  0  0  0  0  0  0  0  0  0  0  0
    5.0653    1.8770   21.5039 C   0  0  0  0  0  0  0  0  0  0  0  0
    5.2149    1.2022   20.1727 C   0  0  0  0  0  0  0  0  0  0  0  0
    5.5134   -3.2899   25.5681 C   0  0  0  0  0  0  0  0  0  0  0  0
    5.4149   -4.7866   25.5678 C   0  0  0  0  0  0  0  0  0  0  0  0
    4.4399   -5.4738   24.6584 N   0  0  0  0  0  0  0  0  0  0  0  0
    4.4373   -5.8713   23.2120 C   0  0  0  0  0  0  0  0  0  0  0  0
    3.0609   -6.4456   23.3724 C   0  0  0  0  0  0  0  0  0  0  0  0
    3.0635   -6.0482   24.8186 C   0  0  0  0  0  0  0  0  0  0  0  0
    3.7768   -5.9411   24.0400 H   0  0  0  0  0  0  0  0  0  0  0  0
  2  1  1  0  0  0
  2  3  1  0  0  0
  3  4  1  0  0  0
  4 19  1  0  0  0
 19 20  2  0  0  0
 20 21  1  0  0  0
 21 22  2  0  0  0
 22 23  1  0  0  0
 23 24  2  0  0  0
 24 25  1  0  0  0
 25 26  2  0  0  0
 26 27  1  0  0  0
 27 28  2  0  0  0
  4  5  1  0  0  0
  5  6  2  0  0  0
  5  7  1  0  0  0
  7  8  1  0  0  0
  8  9  1  0  0  0
  9 29  1  0  0  0
 29 30  1  0  0  0
 30 31  1  0  0  0
 31 32  1  0  0  0
 32 33  1  0  0  0
 33 34  1  0  0  0
  9 10  1  0  0  0
 10 11  2  0  0  0
 10 12  1  0  0  0
 12 13  2  0  0  0
 13 14  1  0  0  0
 14 15  2  0  0  0
 15 16  1  0  0  0
 15 17  1  0  0  0
 17 18  2  0  0  0
  7  2  1  0  0  0
 34 31  1  0  0  0
 18 12  1  0  0  0
 28 19  1  0  0  0
 18  7  1  0  0  0
 28 23  1  0  0  0
 31 35  1  0  0  0
M  CHG 1  31   1
M  END
> <minimizedAffinity>
-8.62223

> <CNNscore>
0.3442310989

> <CNNaffinity>
6.4894776344

> <CNN_VS>
2.2338800430

> <CNNaffinity_variance>
0.0471969657

$$$$



 35 40  0  0  0  0  0  0  0  0999 V2000
   10.5718   -0.3004   22.8663 C   0  0  0  0  0  0  0  0  0  0  0  0
    9.1140   -0.5616   22.6281 C   0  0  0  0  0  0  0  0  0  0  0  0
    8.6381    0.0424   21.3401 C   0  0  0  0  0  0  0  0  0  0  0  0
    7.1786   -0.2710   21.1927 N   0  0  0  0  0  0  0  0  0  0  0  0
    6.7526   -1.0686   22.3894 C   0  0  0  0  0  0  0  0  0  0  0  0
    5.3726   -1.5944   22.6528 O   0  0  0  0  0  0  0  0  0  0  0  0
    7.9487   -1.2482   23.2766 C   0  0  0  0  0  0  0  0  0  0  0  0
    6.6979   -1.8881   23.8020 C   0  0  0  0  0  0  0  0  0  0  0  0
    6.7242   -2.6249   25.1083 N   0  0  0  0  0  0  0  0  0  0  0  0
    8.0012   -2.7220   25.8891 C   0  0  0  0  0  0  0  0  0  0  0  0
    8.0274   -3.4589   27.1954 O   0  0  0  0  0  0  0  0  0  0  0  0
    9.2520   -2.0822   25.3637 C   0  0  0  0  0  0  0  0  0  0  0  0
   10.5291   -2.1792   26.1445 C   0  0  0  0  0  0  0  0  0  0  0  0
   11.7798   -1.5394   25.6191 C   0  0  0  0  0  0  0  0  0  0  0  0
   11.7536   -0.8025   24.3129 C   0  0  0  0  0  0  0  0  0  0  0  0
   13.0045   -0.1627   23.7874 Cl  0  0  0  0  0  0  0  0  0  0  0  0
   10.4766   -0.7055   23.5320 C   0  0  0  0  0  0  0  0  0  0  0  0
    9.2258   -1.3453   24.0574 C   0  0  0  0  0  0  0  0  0  0  0  0
    6.2995    0.1409   20.0492 C   0  0  0  0  0  0  0  0  0  0  0  0
    6.4752   -0.4938   18.7016 C   0  0  0  0  0  0  0  0  0  0  0  0
    5.5961   -0.0819   17.5582 N   0  0  0  0  0  0  0  0  0  0  0  0
    4.5413    0.9648   17.7624 C   0  0  0  0  0  0  0  0  0  0  0  0
    4.3656    1.5996   19.1101 C   0  0  0  0  0  0  0  0  0  0  0  0
    3.3107    2.6464   19.3143 C   0  0  0  0  0  0  0  0  0  0  0  0
    3.1351    3.2811   20.6620 C   0  0  0  0  0  0  0  0  0  0  0  0
    4.0142    2.8691   21.8053 C   0  0  0  0  0  0  0  0  0  0  0  0
    5.0690    1.8224   21.6011 C   0  0  0  0  0  0  0  0  0  0  0  0
    5.2447    1.1877   20.2535 C   0  0  0  0  0  0  0  0  0  0  0  0
    5.4733   -3.2648   25.6337 C   0  0  0  0  0  0  0  0  0  0  0  0
    5.4093   -4.7529   25.8104 C   0  0  0  0  0  0  0  0  0  0  0  0
    6.0589   -5.6562   24.8045 N   0  0  0  0  0  0  0  0  0  0  0  0
    7.0888   -5.4786   23.7284 C   0  0  0  0  0  0  0  0  0  0  0  0
    6.9777   -6.9337   23.3818 C   0  0  0  0  0  0  0  0  0  0  0  0
    5.9479   -7.1114   24.4578 C   0  0  0  0  0  0  0  0  0  0  0  0
    6.5007   -6.2705   24.1204 H   0  0  0  0  0  0  0  0  0  0  0  0
  2  1  1  0  0  0
  2  3  1  0  0  0
  3  4  1  0  0  0
  4 19  1  0  0  0
 19 20  2  0  0  0
 20 21  1  0  0  0
 21 22  2  0  0  0
 22 23  1  0  0  0
 23 24  2  0  0  0
 24 25  1  0  0  0
 25 26  2  0  0  0
 26 27  1  0  0  0
 27 28  2  0  0  0
  4  5  1  0  0  0
  5  6  2  0  0  0
  5  7  1  0  0  0
  7  8  1  0  0  0
  8  9  1  0  0  0
  9 29  1  0  0  0
 29 30  1  0  0  0
 30 31  1  0  0  0
 31 32  1  0  0  0
 32 33  1  0  0  0
 33 34  1  0  0  0
  9 10  1  0  0  0
 10 11  2  0  0  0
 10 12  1  0  0  0
 12 13  2  0  0  0
 13 14  1  0  0  0
 14 15  2  0  0  0
 15 16  1  0  0  0
 15 17  1  0  0  0
 17 18  2  0  0  0
  7  2  1  0  0  0
 34 31  1  0  0  0
 18 12  1  0  0  0
 28 19  1  0  0  0
 18  7  1  0  0  0
 28 23  1  0  0  0
 31 35  1  0  0  0
M  CHG 1  31   1
M  END
> <minimizedAffinity>
-9.05991

> <CNNscore>
0.3424482644

> <CNNaffinity>
6.5265898705

> <CNN_VS>
2.2350194454

> <CNNaffinity_variance>
0.0776019767

$$$$
