


 43 49  0  0  0  0  0  0  0  0999 V2000
   -7.2356   -4.0403  -24.2869 O   0  0  0  0  0  0  0  0  0  0  0  0
   -7.7467   -2.6405  -24.1155 C   0  0  0  0  0  0  0  0  0  0  0  0
   -6.7863   -1.5181  -23.8544 C   0  0  0  0  0  0  0  0  0  0  0  0
   -5.3149   -1.7956  -23.7647 C   0  0  0  0  0  0  0  0  0  0  0  0
   -4.3547   -0.6732  -23.5037 C   0  0  0  0  0  0  0  0  0  0  0  0
   -4.8658    0.7266  -23.3323 C   0  0  0  0  0  0  0  0  0  0  0  0
   -3.6570    1.5813  -23.0904 Cl  0  0  0  0  0  0  0  0  0  0  0  0
   -6.3371    1.0040  -23.4220 C   0  0  0  0  0  0  0  0  0  0  0  0
   -7.2974   -0.1183  -23.6831 C   0  0  0  0  0  0  0  0  0  0  0  0
   -8.7688    0.1591  -23.7728 C   0  0  0  0  0  0  0  0  0  0  0  0
   -9.7291   -0.9632  -24.0339 C   0  0  0  0  0  0  0  0  0  0  0  0
   -9.2180   -2.3630  -24.2052 N   0  0  0  0  0  0  0  0  0  0  0  0
  -10.2050    0.5873  -23.8359 C   0  0  0  0  0  0  0  0  0  0  0  0
  -11.3823   -0.3092  -24.0815 O   0  0  0  0  0  0  0  0  0  0  0  0
  -10.2573    2.0693  -23.6104 N   0  0  0  0  0  0  0  0  0  0  0  0
   -8.8533    2.5571  -23.4079 C   0  0  0  0  0  0  0  0  0  0  0  0
   -7.9335    1.3766  -23.5083 C   0  0  0  0  0  0  0  0  0  0  0  0
  -11.4960    2.9150  -23.5908 C   0  0  0  0  0  0  0  0  0  0  0  0
  -12.4552    2.8137  -22.4421 C   0  0  0  0  0  0  0  0  0  0  0  0
  -13.6939    3.6594  -22.4225 N   0  0  0  0  0  0  0  0  0  0  0  0
  -13.9733    4.6064  -23.5517 C   0  0  0  0  0  0  0  0  0  0  0  0
  -13.0141    4.7077  -24.7004 C   0  0  0  0  0  0  0  0  0  0  0  0
  -13.2936    5.6548  -25.8297 C   0  0  0  0  0  0  0  0  0  0  0  0
  -12.3343    5.7561  -26.9784 C   0  0  0  0  0  0  0  0  0  0  0  0
  -11.0956    4.9103  -26.9979 C   0  0  0  0  0  0  0  0  0  0  0  0
  -10.8162    3.9633  -25.8687 C   0  0  0  0  0  0  0  0  0  0  0  0
  -11.7754    3.8620  -24.7200 C   0  0  0  0  0  0  0  0  0  0  0  0
  -10.1784   -3.4854  -24.4663 C   0  0  0  0  0  0  0  0  0  0  0  0
  -10.0208   -4.3378  -25.6904 C   0  0  0  0  0  0  0  0  0  0  0  0
  -10.4872   -5.7634  -25.6767 C   0  0  0  0  0  0  0  0  0  0  0  0
  -10.3296   -6.6159  -26.9008 C   0  0  0  0  0  0  0  0  0  0  0  0
   -9.7057   -6.0427  -28.1387 N   0  0  0  0  0  0  0  0  0  0  0  0
   -9.2394   -4.6171  -28.1524 N   0  0  0  0  0  0  0  0  0  0  0  0
   -9.3969   -3.7647  -26.9282 C   0  0  0  0  0  0  0  0  0  0  0  0
   -6.4403    1.4080  -23.3686 C   0  0  0  0  0  0  0  0  0  0  0  0
   -5.8161    1.8995  -22.0963 N   0  0  0  0  0  0  0  0  0  0  0  0
   -5.3783    2.7810  -22.0713 H   0  0  0  0  0  0  0  0  0  0  0  0
   -5.8587    1.0481  -20.8622 C   0  0  0  0  0  0  0  0  0  0  0  0
   -4.7185    1.0818  -19.8881 C   0  0  0  0  0  0  0  0  0  0  0  0
   -4.7611    0.2303  -18.6539 C   0  0  0  0  0  0  0  0  0  0  0  0
   -5.9439   -0.6547  -18.3938 N   0  0  0  0  0  0  0  0  0  0  0  0
   -7.0841   -0.6884  -19.3679 C   0  0  0  0  0  0  0  0  0  0  0  0
   -7.0415    0.1630  -20.6020 N   0  0  0  0  0  0  0  0  0  0  0  0
  1  2  2  0  0  0
  2  3  1  0  0  0
  3  4  2  0  0  0
  4  5  1  0  0  0
  5  6  2  0  0  0
  6  7  1  0  0  0
  6  8  1  0  0  0
  8  9  2  0  0  0
  9 10  1  0  0  0
 10 11  1  0  0  0
 11 12  1  0  0  0
 12 28  1  0  0  0
 28 29  1  0  0  0
 29 30  2  0  0  0
 30 31  1  0  0  0
 31 32  2  0  0  0
 32 33  1  0  0  0
 33 34  2  0  0  0
 10 13  1  0  0  0
 13 14  2  0  0  0
 13 15  1  0  0  0
 15 18  1  0  0  0
 18 19  2  0  0  0
 19 20  1  0  0  0
 20 21  2  0  0  0
 21 22  1  0  0  0
 22 23  2  0  0  0
 23 24  1  0  0  0
 24 25  2  0  0  0
 25 26  1  0  0  0
 26 27  2  0  0  0
 15 16  1  0  0  0
 16 17  1  0  0  0
 17 35  1  0  0  0
 35 36  1  0  0  0
 36 38  1  0  0  0
 38 39  2  0  0  0
 39 40  1  0  0  0
 40 41  2  0  0  0
 41 42  1  0  0  0
 42 43  2  0  0  0
 12  2  1  0  0  0
 34 29  1  0  0  0
 27 18  1  0  0  0
 43 38  1  0  0  0
  9  3  1  0  0  0
 17 10  1  0  0  0
 27 22  1  0  0  0
 36 37  1  0  0  0
M  END
> <minimizedAffinity>
-8.47929

> <CNNscore>
0.5497483015

> <CNNaffinity>
7.0920257568

> <CNN_VS>
3.8988292217

> <CNNaffinity_variance>
0.0642198622

$$$$



 43 49  0  0  0  0  0  0  0  0999 V2000
   -7.8511   -4.9742  -23.1497 O   0  0  0  0  0  0  0  0  0  0  0  0
   -8.2920   -3.5432  -23.0617 C   0  0  0  0  0  0  0  0  0  0  0  0
   -7.4609   -2.5473  -22.3084 C   0  0  0  0  0  0  0  0  0  0  0  0
   -6.1889   -2.9824  -21.6432 C   0  0  0  0  0  0  0  0  0  0  0  0
   -5.3578   -1.9865  -20.8899 C   0  0  0  0  0  0  0  0  0  0  0  0
   -5.7987   -0.5555  -20.8019 C   0  0  0  0  0  0  0  0  0  0  0  0
   -4.7529    0.1501  -19.9903 Cl  0  0  0  0  0  0  0  0  0  0  0  0
   -7.0707   -0.1204  -21.4672 C   0  0  0  0  0  0  0  0  0  0  0  0
   -7.9018   -1.1163  -22.2204 C   0  0  0  0  0  0  0  0  0  0  0  0
   -9.1739   -0.6811  -22.8857 C   0  0  0  0  0  0  0  0  0  0  0  0
  -10.0050   -1.6770  -23.6390 C   0  0  0  0  0  0  0  0  0  0  0  0
   -9.5640   -3.1081  -23.7270 N   0  0  0  0  0  0  0  0  0  0  0  0
  -10.4154   -0.1019  -23.4966 C   0  0  0  0  0  0  0  0  0  0  0  0
  -11.4340   -0.8520  -24.3027 O   0  0  0  0  0  0  0  0  0  0  0  0
  -10.4595    1.3591  -23.1598 N   0  0  0  0  0  0  0  0  0  0  0  0
   -9.2452    1.6829  -22.3408 C   0  0  0  0  0  0  0  0  0  0  0  0
   -8.4507    0.4219  -22.1714 C   0  0  0  0  0  0  0  0  0  0  0  0
  -11.5299    2.3265  -23.5700 C   0  0  0  0  0  0  0  0  0  0  0  0
  -12.8505    2.3297  -22.8589 C   0  0  0  0  0  0  0  0  0  0  0  0
  -13.9210    3.2971  -23.2691 N   0  0  0  0  0  0  0  0  0  0  0  0
  -13.6707    4.2613  -24.3905 C   0  0  0  0  0  0  0  0  0  0  0  0
  -12.3500    4.2582  -25.1017 C   0  0  0  0  0  0  0  0  0  0  0  0
  -12.0998    5.2224  -26.2232 C   0  0  0  0  0  0  0  0  0  0  0  0
  -10.7791    5.2192  -26.9343 C   0  0  0  0  0  0  0  0  0  0  0  0
   -9.7087    4.2518  -26.5241 C   0  0  0  0  0  0  0  0  0  0  0  0
   -9.9590    3.2876  -25.4027 C   0  0  0  0  0  0  0  0  0  0  0  0
  -11.2796    3.2908  -24.6915 C   0  0  0  0  0  0  0  0  0  0  0  0
  -10.3952   -4.1040  -24.4803 C   0  0  0  0  0  0  0  0  0  0  0  0
   -9.9068   -4.6518  -25.7884 C   0  0  0  0  0  0  0  0  0  0  0  0
  -10.4315   -5.9624  -26.2955 C   0  0  0  0  0  0  0  0  0  0  0  0
   -9.9431   -6.5102  -27.6036 C   0  0  0  0  0  0  0  0  0  0  0  0
   -8.9298   -5.7475  -28.4047 N   0  0  0  0  0  0  0  0  0  0  0  0
   -8.4050   -4.4370  -27.8976 N   0  0  0  0  0  0  0  0  0  0  0  0
   -8.8935   -3.8892  -26.5894 C   0  0  0  0  0  0  0  0  0  0  0  0
   -7.1596    0.2877  -21.4197 C   0  0  0  0  0  0  0  0  0  0  0  0
   -5.8830    0.7908  -22.0256 N   0  0  0  0  0  0  0  0  0  0  0  0
   -5.1882    0.1536  -22.3094 H   0  0  0  0  0  0  0  0  0  0  0  0
   -5.6649    2.2646  -22.1991 C   0  0  0  0  0  0  0  0  0  0  0  0
   -4.2819    2.7955  -22.4344 C   0  0  0  0  0  0  0  0  0  0  0  0
   -4.0638    4.2694  -22.6080 C   0  0  0  0  0  0  0  0  0  0  0  0
   -5.2286    5.2124  -22.5461 N   0  0  0  0  0  0  0  0  0  0  0  0
   -6.6116    4.6814  -22.3108 C   0  0  0  0  0  0  0  0  0  0  0  0
   -6.8298    3.2076  -22.1373 N   0  0  0  0  0  0  0  0  0  0  0  0
  1  2  2  0  0  0
  2  3  1  0  0  0
  3  4  2  0  0  0
  4  5  1  0  0  0
  5  6  2  0  0  0
  6  7  1  0  0  0
  6  8  1  0  0  0
  8  9  2  0  0  0
  9 10  1  0  0  0
 10 11  1  0  0  0
 11 12  1  0  0  0
 12 28  1  0  0  0
 28 29  1  0  0  0
 29 30  2  0  0  0
 30 31  1  0  0  0
 31 32  2  0  0  0
 32 33  1  0  0  0
 33 34  2  0  0  0
 10 13  1  0  0  0
 13 14  2  0  0  0
 13 15  1  0  0  0
 15 18  1  0  0  0
 18 19  2  0  0  0
 19 20  1  0  0  0
 20 21  2  0  0  0
 21 22  1  0  0  0
 22 23  2  0  0  0
 23 24  1  0  0  0
 24 25  2  0  0  0
 25 26  1  0  0  0
 26 27  2  0  0  0
 15 16  1  0  0  0
 16 17  1  0  0  0
 17 35  1  0  0  0
 35 36  1  0  0  0
 36 38  1  0  0  0
 38 39  2  0  0  0
 39 40  1  0  0  0
 40 41  2  0  0  0
 41 42  1  0  0  0
 42 43  2  0  0  0
 12  2  1  0  0  0
 34 29  1  0  0  0
 27 18  1  0  0  0
 43 38  1  0  0  0
  9  3  1  0  0  0
 17 10  1  0  0  0
 27 22  1  0  0  0
 36 37  1  0  0  0
M  END
> <minimizedAffinity>
-9.06715

> <CNNscore>
0.3336174190

> <CNNaffinity>
6.8792777061

> <CNN_VS>
2.2950468063

> <CNNaffinity_variance>
0.1496061087

$$$$



 43 49  0  0  0  0  0  0  0  0999 V2000
   -5.1295   -2.9979  -20.4740 O   0  0  0  0  0  0  0  0  0  0  0  0
   -6.0030   -2.0851  -21.2825 C   0  0  0  0  0  0  0  0  0  0  0  0
   -6.9395   -2.6554  -22.3062 C   0  0  0  0  0  0  0  0  0  0  0  0
   -7.0024   -4.1386  -22.5213 C   0  0  0  0  0  0  0  0  0  0  0  0
   -7.9388   -4.7089  -23.5449 C   0  0  0  0  0  0  0  0  0  0  0  0
   -8.8124   -3.7960  -24.3534 C   0  0  0  0  0  0  0  0  0  0  0  0
   -9.6078   -4.6841  -25.2638 Cl  0  0  0  0  0  0  0  0  0  0  0  0
   -8.7494   -2.3129  -24.1383 C   0  0  0  0  0  0  0  0  0  0  0  0
   -7.8130   -1.7426  -23.1147 C   0  0  0  0  0  0  0  0  0  0  0  0
   -7.7500   -0.2594  -22.8996 C   0  0  0  0  0  0  0  0  0  0  0  0
   -6.8136    0.3109  -21.8759 C   0  0  0  0  0  0  0  0  0  0  0  0
   -5.9401   -0.6020  -21.0674 N   0  0  0  0  0  0  0  0  0  0  0  0
   -7.7967    1.2363  -22.7962 C   0  0  0  0  0  0  0  0  0  0  0  0
   -6.9780    2.0818  -21.8662 O   0  0  0  0  0  0  0  0  0  0  0  0
   -8.8057    1.7382  -23.7861 N   0  0  0  0  0  0  0  0  0  0  0  0
   -9.3827    0.5526  -24.5013 C   0  0  0  0  0  0  0  0  0  0  0  0
   -8.7302   -0.6819  -23.9534 C   0  0  0  0  0  0  0  0  0  0  0  0
   -9.1732    3.1735  -24.0198 C   0  0  0  0  0  0  0  0  0  0  0  0
   -8.1195    4.1610  -24.4253 C   0  0  0  0  0  0  0  0  0  0  0  0
   -8.4871    5.5964  -24.6590 N   0  0  0  0  0  0  0  0  0  0  0  0
   -9.9083    6.0442  -24.4872 C   0  0  0  0  0  0  0  0  0  0  0  0
  -10.9620    5.0567  -24.0817 C   0  0  0  0  0  0  0  0  0  0  0  0
  -12.3833    5.5045  -23.9099 C   0  0  0  0  0  0  0  0  0  0  0  0
  -13.4370    4.5169  -23.5044 C   0  0  0  0  0  0  0  0  0  0  0  0
  -13.0694    3.0816  -23.2708 C   0  0  0  0  0  0  0  0  0  0  0  0
  -11.6482    2.6338  -23.4425 C   0  0  0  0  0  0  0  0  0  0  0  0
  -10.5945    3.6213  -23.8480 C   0  0  0  0  0  0  0  0  0  0  0  0
   -5.0036   -0.0316  -20.0438 C   0  0  0  0  0  0  0  0  0  0  0  0
   -3.8198    0.7798  -20.4798 C   0  0  0  0  0  0  0  0  0  0  0  0
   -3.3148    0.6727  -21.8882 C   0  0  0  0  0  0  0  0  0  0  0  0
   -2.1310    1.4842  -22.3242 C   0  0  0  0  0  0  0  0  0  0  0  0
   -1.4522    2.4028  -21.3519 N   0  0  0  0  0  0  0  0  0  0  0  0
   -1.9572    2.5100  -19.9435 N   0  0  0  0  0  0  0  0  0  0  0  0
   -3.1411    1.6984  -19.5075 C   0  0  0  0  0  0  0  0  0  0  0  0
   -9.0091   -2.0916  -24.3837 C   0  0  0  0  0  0  0  0  0  0  0  0
  -10.1177   -2.8679  -23.7370 N   0  0  0  0  0  0  0  0  0  0  0  0
   -9.9638   -3.7955  -23.4452 H   0  0  0  0  0  0  0  0  0  0  0  0
  -11.4606   -2.2312  -23.5348 C   0  0  0  0  0  0  0  0  0  0  0  0
  -12.3664   -2.7211  -22.4442 C   0  0  0  0  0  0  0  0  0  0  0  0
  -13.7094   -2.0842  -22.2420 C   0  0  0  0  0  0  0  0  0  0  0  0
  -14.1465   -0.9575  -23.1305 N   0  0  0  0  0  0  0  0  0  0  0  0
  -13.2407   -0.4676  -24.2211 C   0  0  0  0  0  0  0  0  0  0  0  0
  -11.8978   -1.1044  -24.4233 N   0  0  0  0  0  0  0  0  0  0  0  0
  1  2  2  0  0  0
  2  3  1  0  0  0
  3  4  2  0  0  0
  4  5  1  0  0  0
  5  6  2  0  0  0
  6  7  1  0  0  0
  6  8  1  0  0  0
  8  9  2  0  0  0
  9 10  1  0  0  0
 10 11  1  0  0  0
 11 12  1  0  0  0
 12 28  1  0  0  0
 28 29  1  0  0  0
 29 30  2  0  0  0
 30 31  1  0  0  0
 31 32  2  0  0  0
 32 33  1  0  0  0
 33 34  2  0  0  0
 10 13  1  0  0  0
 13 14  2  0  0  0
 13 15  1  0  0  0
 15 18  1  0  0  0
 18 19  2  0  0  0
 19 20  1  0  0  0
 20 21  2  0  0  0
 21 22  1  0  0  0
 22 23  2  0  0  0
 23 24  1  0  0  0
 24 25  2  0  0  0
 25 26  1  0  0  0
 26 27  2  0  0  0
 15 16  1  0  0  0
 16 17  1  0  0  0
 17 35  1  0  0  0
 35 36  1  0  0  0
 36 38  1  0  0  0
 38 39  2  0  0  0
 39 40  1  0  0  0
 40 41  2  0  0  0
 41 42  1  0  0  0
 42 43  2  0  0  0
 12  2  1  0  0  0
 34 29  1  0  0  0
 27 18  1  0  0  0
 43 38  1  0  0  0
  9  3  1  0  0  0
 17 10  1  0  0  0
 27 22  1  0  0  0
 36 37  1  0  0  0
M  END
> <minimizedAffinity>
-9.06000

> <CNNscore>
0.2677761614

> <CNNaffinity>
6.8615341187

> <CNN_VS>
1.8373552561

> <CNNaffinity_variance>
0.2833989561

$$$$



 43 49  0  0  0  0  0  0  0  0999 V2000
  -11.5351   -4.3928  -25.2071 O   0  0  0  0  0  0  0  0  0  0  0  0
  -10.2933   -4.0246  -24.4506 C   0  0  0  0  0  0  0  0  0  0  0  0
   -8.9929   -4.7011  -24.7689 C   0  0  0  0  0  0  0  0  0  0  0  0
   -8.9343   -5.7458  -25.8437 C   0  0  0  0  0  0  0  0  0  0  0  0
   -7.6339   -6.4222  -26.1619 C   0  0  0  0  0  0  0  0  0  0  0  0
   -6.3921   -6.0540  -25.4054 C   0  0  0  0  0  0  0  0  0  0  0  0
   -5.2956   -6.9079  -25.9701 Cl  0  0  0  0  0  0  0  0  0  0  0  0
   -6.4507   -5.0094  -24.3306 C   0  0  0  0  0  0  0  0  0  0  0  0
   -7.7511   -4.3329  -24.0124 C   0  0  0  0  0  0  0  0  0  0  0  0
   -7.8097   -3.2882  -22.9375 C   0  0  0  0  0  0  0  0  0  0  0  0
   -9.1101   -2.6117  -22.6193 C   0  0  0  0  0  0  0  0  0  0  0  0
  -10.3519   -2.9799  -23.3758 N   0  0  0  0  0  0  0  0  0  0  0  0
   -7.7145   -2.2678  -21.8422 C   0  0  0  0  0  0  0  0  0  0  0  0
   -8.8445   -1.4365  -21.3110 O   0  0  0  0  0  0  0  0  0  0  0  0
   -6.2910   -2.2247  -21.3712 N   0  0  0  0  0  0  0  0  0  0  0  0
   -5.5064   -3.2184  -22.1755 C   0  0  0  0  0  0  0  0  0  0  0  0
   -6.4450   -3.8757  -23.1435 C   0  0  0  0  0  0  0  0  0  0  0  0
   -5.7476   -1.3427  -20.2864 C   0  0  0  0  0  0  0  0  0  0  0  0
   -6.1579   -1.5672  -18.8613 C   0  0  0  0  0  0  0  0  0  0  0  0
   -5.6145   -0.6852  -17.7765 N   0  0  0  0  0  0  0  0  0  0  0  0
   -4.6608    0.4213  -18.1169 C   0  0  0  0  0  0  0  0  0  0  0  0
   -4.2504    0.6458  -19.5422 C   0  0  0  0  0  0  0  0  0  0  0  0
   -3.2966    1.7525  -19.8826 C   0  0  0  0  0  0  0  0  0  0  0  0
   -2.8864    1.9769  -21.3078 C   0  0  0  0  0  0  0  0  0  0  0  0
   -3.4298    1.0949  -22.3925 C   0  0  0  0  0  0  0  0  0  0  0  0
   -4.3836   -0.0116  -22.0521 C   0  0  0  0  0  0  0  0  0  0  0  0
   -4.7939   -0.2361  -20.6269 C   0  0  0  0  0  0  0  0  0  0  0  0
  -11.6524   -2.3034  -23.0575 C   0  0  0  0  0  0  0  0  0  0  0  0
  -11.8275   -0.8418  -23.3454 C   0  0  0  0  0  0  0  0  0  0  0  0
  -10.6323    0.0106  -23.6534 C   0  0  0  0  0  0  0  0  0  0  0  0
  -10.8074    1.4722  -23.9412 C   0  0  0  0  0  0  0  0  0  0  0  0
  -12.1780    2.0816  -23.9212 N   0  0  0  0  0  0  0  0  0  0  0  0
  -13.3733    1.2292  -23.6132 N   0  0  0  0  0  0  0  0  0  0  0  0
  -13.1980   -0.2325  -23.3254 C   0  0  0  0  0  0  0  0  0  0  0  0
   -6.0825   -4.9345  -24.1422 C   0  0  0  0  0  0  0  0  0  0  0  0
   -5.1090   -4.6273  -25.2412 N   0  0  0  0  0  0  0  0  0  0  0  0
   -4.4286   -5.2917  -25.4960 H   0  0  0  0  0  0  0  0  0  0  0  0
   -5.1720   -3.3080  -25.9520 C   0  0  0  0  0  0  0  0  0  0  0  0
   -5.9766   -3.1719  -27.2106 C   0  0  0  0  0  0  0  0  0  0  0  0
   -6.0397   -1.8525  -27.9214 C   0  0  0  0  0  0  0  0  0  0  0  0
   -5.2981   -0.6693  -27.3737 N   0  0  0  0  0  0  0  0  0  0  0  0
   -4.4935   -0.8054  -26.1151 C   0  0  0  0  0  0  0  0  0  0  0  0
   -4.4304   -2.1247  -25.4043 N   0  0  0  0  0  0  0  0  0  0  0  0
  1  2  2  0  0  0
  2  3  1  0  0  0
  3  4  2  0  0  0
  4  5  1  0  0  0
  5  6  2  0  0  0
  6  7  1  0  0  0
  6  8  1  0  0  0
  8  9  2  0  0  0
  9 10  1  0  0  0
 10 11  1  0  0  0
 11 12  1  0  0  0
 12 28  1  0  0  0
 28 29  1  0  0  0
 29 30  2  0  0  0
 30 31  1  0  0  0
 31 32  2  0  0  0
 32 33  1  0  0  0
 33 34  2  0  0  0
 10 13  1  0  0  0
 13 14  2  0  0  0
 13 15  1  0  0  0
 15 18  1  0  0  0
 18 19  2  0  0  0
 19 20  1  0  0  0
 20 21  2  0  0  0
 21 22  1  0  0  0
 22 23  2  0  0  0
 23 24  1  0  0  0
 24 25  2  0  0  0
 25 26  1  0  0  0
 26 27  2  0  0  0
 15 16  1  0  0  0
 16 17  1  0  0  0
 17 35  1  0  0  0
 35 36  1  0  0  0
 36 38  1  0  0  0
 38 39  2  0  0  0
 39 40  1  0  0  0
 40 41  2  0  0  0
 41 42  1  0  0  0
 42 43  2  0  0  0
 12  2  1  0  0  0
 34 29  1  0  0  0
 27 18  1  0  0  0
 43 38  1  0  0  0
  9  3  1  0  0  0
 17 10  1  0  0  0
 27 22  1  0  0  0
 36 37  1  0  0  0
M  END
> <minimizedAffinity>
-8.27497

> <CNNscore>
0.2198249102

> <CNNaffinity>
6.6738610268

> <CNN_VS>
1.4670809507

> <CNNaffinity_variance>
0.1591366976

$$$$



 43 49  0  0  0  0  0  0  0  0999 V2000
  -11.7938   -4.2821  -25.2518 O   0  0  0  0  0  0  0  0  0  0  0  0
  -10.5291   -3.9913  -24.4997 C   0  0  0  0  0  0  0  0  0  0  0  0
   -9.2850   -4.7767  -24.7922 C   0  0  0  0  0  0  0  0  0  0  0  0
   -9.3058   -5.8530  -25.8368 C   0  0  0  0  0  0  0  0  0  0  0  0
   -8.0618   -6.6383  -26.1292 C   0  0  0  0  0  0  0  0  0  0  0  0
   -6.7970   -6.3475  -25.3771 C   0  0  0  0  0  0  0  0  0  0  0  0
   -5.7695   -7.3006  -25.9119 Cl  0  0  0  0  0  0  0  0  0  0  0  0
   -6.7762   -5.2713  -24.3325 C   0  0  0  0  0  0  0  0  0  0  0  0
   -8.0202   -4.4859  -24.0401 C   0  0  0  0  0  0  0  0  0  0  0  0
   -7.9995   -3.4096  -22.9954 C   0  0  0  0  0  0  0  0  0  0  0  0
   -9.2435   -2.6242  -22.7030 C   0  0  0  0  0  0  0  0  0  0  0  0
  -10.5083   -2.9150  -23.4551 N   0  0  0  0  0  0  0  0  0  0  0  0
   -7.8274   -2.3691  -21.9288 C   0  0  0  0  0  0  0  0  0  0  0  0
   -8.8899   -1.4367  -21.4270 O   0  0  0  0  0  0  0  0  0  0  0  0
   -6.4063   -2.4246  -21.4520 N   0  0  0  0  0  0  0  0  0  0  0  0
   -5.7000   -3.4994  -22.2239 C   0  0  0  0  0  0  0  0  0  0  0  0
   -6.6847   -4.1081  -23.1778 C   0  0  0  0  0  0  0  0  0  0  0  0
   -5.7982   -1.5575  -20.3897 C   0  0  0  0  0  0  0  0  0  0  0  0
   -6.1049   -1.8156  -18.9444 C   0  0  0  0  0  0  0  0  0  0  0  0
   -5.4968   -0.9485  -17.8821 N   0  0  0  0  0  0  0  0  0  0  0  0
   -4.5820    0.1767  -18.2653 C   0  0  0  0  0  0  0  0  0  0  0  0
   -4.2753    0.4349  -19.7108 C   0  0  0  0  0  0  0  0  0  0  0  0
   -3.3604    1.5602  -20.0939 C   0  0  0  0  0  0  0  0  0  0  0  0
   -3.0537    1.8183  -21.5394 C   0  0  0  0  0  0  0  0  0  0  0  0
   -3.6618    0.9512  -22.6016 C   0  0  0  0  0  0  0  0  0  0  0  0
   -4.5766   -0.1740  -22.2184 C   0  0  0  0  0  0  0  0  0  0  0  0
   -4.8834   -0.4322  -20.7730 C   0  0  0  0  0  0  0  0  0  0  0  0
  -11.7523   -2.1296  -23.1626 C   0  0  0  0  0  0  0  0  0  0  0  0
  -11.7924   -0.6565  -23.4424 C   0  0  0  0  0  0  0  0  0  0  0  0
  -10.5344    0.0707  -23.8149 C   0  0  0  0  0  0  0  0  0  0  0  0
  -10.5745    1.5438  -24.0948 C   0  0  0  0  0  0  0  0  0  0  0  0
  -11.8726    2.2898  -24.0021 N   0  0  0  0  0  0  0  0  0  0  0  0
  -13.1305    1.5626  -23.6296 N   0  0  0  0  0  0  0  0  0  0  0  0
  -13.0904    0.0894  -23.3498 C   0  0  0  0  0  0  0  0  0  0  0  0
   -6.4038   -5.2203  -24.1444 C   0  0  0  0  0  0  0  0  0  0  0  0
   -5.1765   -5.1737  -25.0055 N   0  0  0  0  0  0  0  0  0  0  0  0
   -5.1824   -4.6568  -25.8434 H   0  0  0  0  0  0  0  0  0  0  0  0
   -3.9402   -5.9144  -24.5900 C   0  0  0  0  0  0  0  0  0  0  0  0
   -3.9055   -6.6388  -23.2770 C   0  0  0  0  0  0  0  0  0  0  0  0
   -2.6691   -7.3796  -22.8615 C   0  0  0  0  0  0  0  0  0  0  0  0
   -1.4674   -7.3959  -23.7590 N   0  0  0  0  0  0  0  0  0  0  0  0
   -1.5020   -6.6715  -25.0720 C   0  0  0  0  0  0  0  0  0  0  0  0
   -2.7383   -5.9307  -25.4875 N   0  0  0  0  0  0  0  0  0  0  0  0
  1  2  2  0  0  0
  2  3  1  0  0  0
  3  4  2  0  0  0
  4  5  1  0  0  0
  5  6  2  0  0  0
  6  7  1  0  0  0
  6  8  1  0  0  0
  8  9  2  0  0  0
  9 10  1  0  0  0
 10 11  1  0  0  0
 11 12  1  0  0  0
 12 28  1  0  0  0
 28 29  1  0  0  0
 29 30  2  0  0  0
 30 31  1  0  0  0
 31 32  2  0  0  0
 32 33  1  0  0  0
 33 34  2  0  0  0
 10 13  1  0  0  0
 13 14  2  0  0  0
 13 15  1  0  0  0
 15 18  1  0  0  0
 18 19  2  0  0  0
 19 20  1  0  0  0
 20 21  2  0  0  0
 21 22  1  0  0  0
 22 23  2  0  0  0
 23 24  1  0  0  0
 24 25  2  0  0  0
 25 26  1  0  0  0
 26 27  2  0  0  0
 15 16  1  0  0  0
 16 17  1  0  0  0
 17 35  1  0  0  0
 35 36  1  0  0  0
 36 38  1  0  0  0
 38 39  2  0  0  0
 39 40  1  0  0  0
 40 41  2  0  0  0
 41 42  1  0  0  0
 42 43  2  0  0  0
 12  2  1  0  0  0
 34 29  1  0  0  0
 27 18  1  0  0  0
 43 38  1  0  0  0
  9  3  1  0  0  0
 17 10  1  0  0  0
 27 22  1  0  0  0
 36 37  1  0  0  0
M  END
> <minimizedAffinity>
-8.00664

> <CNNscore>
0.2160193622

> <CNNaffinity>
6.8069114685

> <CNN_VS>
1.4704246521

> <CNNaffinity_variance>
0.1530147493

$$$$



 43 49  0  0  0  0  0  0  0  0999 V2000
  -11.3834   -3.5299  -23.7336 O   0  0  0  0  0  0  0  0  0  0  0  0
  -10.6585   -2.2187  -23.8070 C   0  0  0  0  0  0  0  0  0  0  0  0
  -11.4125   -0.9340  -23.6309 C   0  0  0  0  0  0  0  0  0  0  0  0
  -12.8913   -0.9604  -23.3815 C   0  0  0  0  0  0  0  0  0  0  0  0
  -13.6453    0.3243  -23.2054 C   0  0  0  0  0  0  0  0  0  0  0  0
  -12.9203    1.6355  -23.2788 C   0  0  0  0  0  0  0  0  0  0  0  0
  -13.9598    2.6952  -23.0628 Cl  0  0  0  0  0  0  0  0  0  0  0  0
  -11.4415    1.6619  -23.5282 C   0  0  0  0  0  0  0  0  0  0  0  0
  -10.6876    0.3772  -23.7042 C   0  0  0  0  0  0  0  0  0  0  0  0
   -9.2086    0.4036  -23.9536 C   0  0  0  0  0  0  0  0  0  0  0  0
   -8.4547   -0.8812  -24.1297 C   0  0  0  0  0  0  0  0  0  0  0  0
   -9.1796   -2.1923  -24.0564 N   0  0  0  0  0  0  0  0  0  0  0  0
   -7.7396    0.5865  -24.1955 C   0  0  0  0  0  0  0  0  0  0  0  0
   -6.7375   -0.5096  -24.4065 O   0  0  0  0  0  0  0  0  0  0  0  0
   -7.4485    2.0580  -24.1893 N   0  0  0  0  0  0  0  0  0  0  0  0
   -8.7376    2.7845  -23.9437 C   0  0  0  0  0  0  0  0  0  0  0  0
   -9.8254    1.7620  -23.7980 C   0  0  0  0  0  0  0  0  0  0  0  0
   -6.1043    2.6917  -24.3930 C   0  0  0  0  0  0  0  0  0  0  0  0
   -5.0973    2.0411  -25.2945 C   0  0  0  0  0  0  0  0  0  0  0  0
   -3.7531    2.6748  -25.4982 N   0  0  0  0  0  0  0  0  0  0  0  0
   -3.4159    3.9591  -24.8004 C   0  0  0  0  0  0  0  0  0  0  0  0
   -4.4229    4.6097  -23.8989 C   0  0  0  0  0  0  0  0  0  0  0  0
   -4.0857    5.8940  -23.2011 C   0  0  0  0  0  0  0  0  0  0  0  0
   -5.0927    6.5445  -22.2996 C   0  0  0  0  0  0  0  0  0  0  0  0
   -6.4369    5.9108  -22.0960 C   0  0  0  0  0  0  0  0  0  0  0  0
   -6.7741    4.6265  -22.7938 C   0  0  0  0  0  0  0  0  0  0  0  0
   -5.7671    3.9760  -23.6952 C   0  0  0  0  0  0  0  0  0  0  0  0
   -8.4256   -3.4771  -24.2325 C   0  0  0  0  0  0  0  0  0  0  0  0
   -8.5602   -4.2571  -25.5066 C   0  0  0  0  0  0  0  0  0  0  0  0
   -8.1167   -5.6891  -25.5597 C   0  0  0  0  0  0  0  0  0  0  0  0
   -8.2513   -6.4691  -26.8338 C   0  0  0  0  0  0  0  0  0  0  0  0
   -8.8293   -5.8171  -28.0549 N   0  0  0  0  0  0  0  0  0  0  0  0
   -9.2728   -4.3852  -28.0017 N   0  0  0  0  0  0  0  0  0  0  0  0
   -9.1382   -3.6051  -26.7275 C   0  0  0  0  0  0  0  0  0  0  0  0
  -11.2755    2.0478  -23.5417 C   0  0  0  0  0  0  0  0  0  0  0  0
  -11.7158    3.4390  -23.1943 N   0  0  0  0  0  0  0  0  0  0  0  0
  -11.8669    3.6869  -22.2536 H   0  0  0  0  0  0  0  0  0  0  0  0
  -11.9260    4.4523  -24.2799 C   0  0  0  0  0  0  0  0  0  0  0  0
  -12.9537    5.5316  -24.1097 C   0  0  0  0  0  0  0  0  0  0  0  0
  -13.1639    6.5450  -25.1955 C   0  0  0  0  0  0  0  0  0  0  0  0
  -12.3464    6.4791  -26.4514 N   0  0  0  0  0  0  0  0  0  0  0  0
  -11.3188    5.3998  -26.6216 C   0  0  0  0  0  0  0  0  0  0  0  0
  -11.1086    4.3865  -25.5360 N   0  0  0  0  0  0  0  0  0  0  0  0
  1  2  2  0  0  0
  2  3  1  0  0  0
  3  4  2  0  0  0
  4  5  1  0  0  0
  5  6  2  0  0  0
  6  7  1  0  0  0
  6  8  1  0  0  0
  8  9  2  0  0  0
  9 10  1  0  0  0
 10 11  1  0  0  0
 11 12  1  0  0  0
 12 28  1  0  0  0
 28 29  1  0  0  0
 29 30  2  0  0  0
 30 31  1  0  0  0
 31 32  2  0  0  0
 32 33  1  0  0  0
 33 34  2  0  0  0
 10 13  1  0  0  0
 13 14  2  0  0  0
 13 15  1  0  0  0
 15 18  1  0  0  0
 18 19  2  0  0  0
 19 20  1  0  0  0
 20 21  2  0  0  0
 21 22  1  0  0  0
 22 23  2  0  0  0
 23 24  1  0  0  0
 24 25  2  0  0  0
 25 26  1  0  0  0
 26 27  2  0  0  0
 15 16  1  0  0  0
 16 17  1  0  0  0
 17 35  1  0  0  0
 35 36  1  0  0  0
 36 38  1  0  0  0
 38 39  2  0  0  0
 39 40  1  0  0  0
 40 41  2  0  0  0
 41 42  1  0  0  0
 42 43  2  0  0  0
 12  2  1  0  0  0
 34 29  1  0  0  0
 27 18  1  0  0  0
 43 38  1  0  0  0
  9  3  1  0  0  0
 17 10  1  0  0  0
 27 22  1  0  0  0
 36 37  1  0  0  0
M  END
> <minimizedAffinity>
-7.78804

> <CNNscore>
0.1720483452

> <CNNaffinity>
6.5240125656

> <CNN_VS>
1.1224455833

> <CNNaffinity_variance>
0.3037465215

$$$$



 43 49  0  0  0  0  0  0  0  0999 V2000
  -13.2650    2.2645  -23.7404 O   0  0  0  0  0  0  0  0  0  0  0  0
  -11.7788    2.0679  -23.6901 C   0  0  0  0  0  0  0  0  0  0  0  0
  -11.2060    0.6817  -23.6662 C   0  0  0  0  0  0  0  0  0  0  0  0
  -12.1194   -0.5078  -23.6927 C   0  0  0  0  0  0  0  0  0  0  0  0
  -11.5466   -1.8939  -23.6688 C   0  0  0  0  0  0  0  0  0  0  0  0
  -10.0604   -2.0905  -23.6185 C   0  0  0  0  0  0  0  0  0  0  0  0
   -9.8399   -3.5742  -23.6061 Cl  0  0  0  0  0  0  0  0  0  0  0  0
   -9.1470   -0.9010  -23.5920 C   0  0  0  0  0  0  0  0  0  0  0  0
   -9.7198    0.4851  -23.6159 C   0  0  0  0  0  0  0  0  0  0  0  0
   -8.8064    1.6747  -23.5894 C   0  0  0  0  0  0  0  0  0  0  0  0
   -9.3792    3.0608  -23.6133 C   0  0  0  0  0  0  0  0  0  0  0  0
  -10.8654    3.2574  -23.6636 N   0  0  0  0  0  0  0  0  0  0  0  0
   -7.7737    2.7621  -23.5586 C   0  0  0  0  0  0  0  0  0  0  0  0
   -8.0459    4.2372  -23.5727 O   0  0  0  0  0  0  0  0  0  0  0  0
   -6.4210    2.1157  -23.5112 N   0  0  0  0  0  0  0  0  0  0  0  0
   -6.6176    0.6286  -23.5127 C   0  0  0  0  0  0  0  0  0  0  0  0
   -8.0919    0.3561  -23.5610 C   0  0  0  0  0  0  0  0  0  0  0  0
   -5.1031    2.8307  -23.4696 C   0  0  0  0  0  0  0  0  0  0  0  0
   -4.7079    3.7410  -24.5943 C   0  0  0  0  0  0  0  0  0  0  0  0
   -3.3899    4.4561  -24.5527 N   0  0  0  0  0  0  0  0  0  0  0  0
   -2.4672    4.2608  -23.3863 C   0  0  0  0  0  0  0  0  0  0  0  0
   -2.8624    3.3504  -22.2616 C   0  0  0  0  0  0  0  0  0  0  0  0
   -1.9397    3.1551  -21.0951 C   0  0  0  0  0  0  0  0  0  0  0  0
   -2.3350    2.2447  -19.9704 C   0  0  0  0  0  0  0  0  0  0  0  0
   -3.6529    1.5298  -20.0121 C   0  0  0  0  0  0  0  0  0  0  0  0
   -4.5756    1.7251  -21.1785 C   0  0  0  0  0  0  0  0  0  0  0  0
   -4.1804    2.6354  -22.3032 C   0  0  0  0  0  0  0  0  0  0  0  0
  -11.4382    4.6435  -23.6874 C   0  0  0  0  0  0  0  0  0  0  0  0
  -11.8326    5.2697  -24.9921 C   0  0  0  0  0  0  0  0  0  0  0  0
  -10.7839    5.8575  -25.8893 C   0  0  0  0  0  0  0  0  0  0  0  0
  -11.1783    6.4837  -27.1940 C   0  0  0  0  0  0  0  0  0  0  0  0
  -12.6213    6.5221  -27.6016 N   0  0  0  0  0  0  0  0  0  0  0  0
  -13.6700    5.9344  -26.7045 N   0  0  0  0  0  0  0  0  0  0  0  0
  -13.2756    5.3082  -25.3997 C   0  0  0  0  0  0  0  0  0  0  0  0
   -8.7382   -0.9974  -23.5780 C   0  0  0  0  0  0  0  0  0  0  0  0
   -8.7813   -1.8239  -22.3270 N   0  0  0  0  0  0  0  0  0  0  0  0
   -9.5447   -2.4222  -22.1584 H   0  0  0  0  0  0  0  0  0  0  0  0
   -7.6615   -1.7387  -21.3328 C   0  0  0  0  0  0  0  0  0  0  0  0
   -6.4122   -2.5428  -21.5394 C   0  0  0  0  0  0  0  0  0  0  0  0
   -5.2923   -2.4575  -20.5452 C   0  0  0  0  0  0  0  0  0  0  0  0
   -5.4217   -1.5682  -19.3442 N   0  0  0  0  0  0  0  0  0  0  0  0
   -6.6709   -0.7641  -19.1375 C   0  0  0  0  0  0  0  0  0  0  0  0
   -7.7908   -0.8493  -20.1317 N   0  0  0  0  0  0  0  0  0  0  0  0
  1  2  2  0  0  0
  2  3  1  0  0  0
  3  4  2  0  0  0
  4  5  1  0  0  0
  5  6  2  0  0  0
  6  7  1  0  0  0
  6  8  1  0  0  0
  8  9  2  0  0  0
  9 10  1  0  0  0
 10 11  1  0  0  0
 11 12  1  0  0  0
 12 28  1  0  0  0
 28 29  1  0  0  0
 29 30  2  0  0  0
 30 31  1  0  0  0
 31 32  2  0  0  0
 32 33  1  0  0  0
 33 34  2  0  0  0
 10 13  1  0  0  0
 13 14  2  0  0  0
 13 15  1  0  0  0
 15 18  1  0  0  0
 18 19  2  0  0  0
 19 20  1  0  0  0
 20 21  2  0  0  0
 21 22  1  0  0  0
 22 23  2  0  0  0
 23 24  1  0  0  0
 24 25  2  0  0  0
 25 26  1  0  0  0
 26 27  2  0  0  0
 15 16  1  0  0  0
 16 17  1  0  0  0
 17 35  1  0  0  0
 35 36  1  0  0  0
 36 38  1  0  0  0
 38 39  2  0  0  0
 39 40  1  0  0  0
 40 41  2  0  0  0
 41 42  1  0  0  0
 42 43  2  0  0  0
 12  2  1  0  0  0
 34 29  1  0  0  0
 27 18  1  0  0  0
 43 38  1  0  0  0
  9  3  1  0  0  0
 17 10  1  0  0  0
 27 22  1  0  0  0
 36 37  1  0  0  0
M  END
> <minimizedAffinity>
-8.16798

> <CNNscore>
0.1399220824

> <CNNaffinity>
6.5707159042

> <CNN_VS>
0.9193882346

> <CNNaffinity_variance>
0.0868759602

$$$$



 43 49  0  0  0  0  0  0  0  0999 V2000
  -12.8284   -0.5685  -24.0295 O   0  0  0  0  0  0  0  0  0  0  0  0
  -11.3853   -0.7114  -23.6460 C   0  0  0  0  0  0  0  0  0  0  0  0
  -10.6399   -1.9680  -23.9856 C   0  0  0  0  0  0  0  0  0  0  0  0
  -11.3375   -3.0817  -24.7087 C   0  0  0  0  0  0  0  0  0  0  0  0
  -10.5921   -4.3382  -25.0483 C   0  0  0  0  0  0  0  0  0  0  0  0
   -9.1490   -4.4811  -24.6649 C   0  0  0  0  0  0  0  0  0  0  0  0
   -8.7248   -5.8361  -25.1490 Cl  0  0  0  0  0  0  0  0  0  0  0  0
   -8.4513   -3.3674  -23.9418 C   0  0  0  0  0  0  0  0  0  0  0  0
   -9.1968   -2.1109  -23.6022 C   0  0  0  0  0  0  0  0  0  0  0  0
   -8.4991   -0.9971  -22.8790 C   0  0  0  0  0  0  0  0  0  0  0  0
   -9.2445    0.2595  -22.5394 C   0  0  0  0  0  0  0  0  0  0  0  0
  -10.6876    0.4023  -22.9229 N   0  0  0  0  0  0  0  0  0  0  0  0
   -7.6731    0.0260  -22.1573 C   0  0  0  0  0  0  0  0  0  0  0  0
   -8.1453    1.3717  -21.6922 O   0  0  0  0  0  0  0  0  0  0  0  0
   -6.2921   -0.5327  -21.9822 N   0  0  0  0  0  0  0  0  0  0  0  0
   -6.2646   -1.9012  -22.5957 C   0  0  0  0  0  0  0  0  0  0  0  0
   -7.6285   -2.1882  -23.1500 C   0  0  0  0  0  0  0  0  0  0  0  0
   -5.1409    0.1561  -21.3113 C   0  0  0  0  0  0  0  0  0  0  0  0
   -5.2192    0.5003  -19.8535 C   0  0  0  0  0  0  0  0  0  0  0  0
   -4.0679    1.1892  -19.1826 N   0  0  0  0  0  0  0  0  0  0  0  0
   -2.8383    1.5338  -19.9696 C   0  0  0  0  0  0  0  0  0  0  0  0
   -2.7600    1.1895  -21.4275 C   0  0  0  0  0  0  0  0  0  0  0  0
   -1.5304    1.5342  -22.2145 C   0  0  0  0  0  0  0  0  0  0  0  0
   -1.4522    1.1899  -23.6724 C   0  0  0  0  0  0  0  0  0  0  0  0
   -2.6035    0.5011  -24.3432 C   0  0  0  0  0  0  0  0  0  0  0  0
   -3.8330    0.1565  -23.5562 C   0  0  0  0  0  0  0  0  0  0  0  0
   -3.9113    0.5007  -22.0984 C   0  0  0  0  0  0  0  0  0  0  0  0
  -11.4330    1.6590  -22.5833 C   0  0  0  0  0  0  0  0  0  0  0  0
  -11.6559    2.7060  -23.6339 C   0  0  0  0  0  0  0  0  0  0  0  0
  -13.0415    3.2113  -23.9072 C   0  0  0  0  0  0  0  0  0  0  0  0
  -13.2643    4.2584  -24.9579 C   0  0  0  0  0  0  0  0  0  0  0  0
  -12.1015    4.8002  -25.7353 N   0  0  0  0  0  0  0  0  0  0  0  0
  -10.7159    4.2949  -25.4620 N   0  0  0  0  0  0  0  0  0  0  0  0
  -10.4931    3.2478  -24.4113 C   0  0  0  0  0  0  0  0  0  0  0  0
   -8.0482   -3.4456  -23.8520 C   0  0  0  0  0  0  0  0  0  0  0  0
   -7.0467   -4.2323  -24.6444 N   0  0  0  0  0  0  0  0  0  0  0  0
   -6.9797   -4.1047  -25.6183 H   0  0  0  0  0  0  0  0  0  0  0  0
   -6.1472   -5.2135  -23.9531 C   0  0  0  0  0  0  0  0  0  0  0  0
   -5.1220   -5.9747  -24.7402 C   0  0  0  0  0  0  0  0  0  0  0  0
   -4.2224   -6.9560  -24.0488 C   0  0  0  0  0  0  0  0  0  0  0  0
   -4.3481   -7.1760  -22.5704 N   0  0  0  0  0  0  0  0  0  0  0  0
   -5.3733   -6.4148  -21.7833 C   0  0  0  0  0  0  0  0  0  0  0  0
   -6.2728   -5.4336  -22.4746 N   0  0  0  0  0  0  0  0  0  0  0  0
  1  2  2  0  0  0
  2  3  1  0  0  0
  3  4  2  0  0  0
  4  5  1  0  0  0
  5  6  2  0  0  0
  6  7  1  0  0  0
  6  8  1  0  0  0
  8  9  2  0  0  0
  9 10  1  0  0  0
 10 11  1  0  0  0
 11 12  1  0  0  0
 12 28  1  0  0  0
 28 29  1  0  0  0
 29 30  2  0  0  0
 30 31  1  0  0  0
 31 32  2  0  0  0
 32 33  1  0  0  0
 33 34  2  0  0  0
 10 13  1  0  0  0
 13 14  2  0  0  0
 13 15  1  0  0  0
 15 18  1  0  0  0
 18 19  2  0  0  0
 19 20  1  0  0  0
 20 21  2  0  0  0
 21 22  1  0  0  0
 22 23  2  0  0  0
 23 24  1  0  0  0
 24 25  2  0  0  0
 25 26  1  0  0  0
 26 27  2  0  0  0
 15 16  1  0  0  0
 16 17  1  0  0  0
 17 35  1  0  0  0
 35 36  1  0  0  0
 36 38  1  0  0  0
 38 39  2  0  0  0
 39 40  1  0  0  0
 40 41  2  0  0  0
 41 42  1  0  0  0
 42 43  2  0  0  0
 12  2  1  0  0  0
 34 29  1  0  0  0
 27 18  1  0  0  0
 43 38  1  0  0  0
  9  3  1  0  0  0
 17 10  1  0  0  0
 27 22  1  0  0  0
 36 37  1  0  0  0
M  END
> <minimizedAffinity>
-8.53441

> <CNNscore>
0.1331297010

> <CNNaffinity>
6.6215906143

> <CNN_VS>
0.8815304041

> <CNNaffinity_variance>
0.1101887971

$$$$



 43 49  0  0  0  0  0  0  0  0999 V2000
  -12.8714   -0.5777  -23.9769 O   0  0  0  0  0  0  0  0  0  0  0  0
  -11.4254   -0.7352  -23.6102 C   0  0  0  0  0  0  0  0  0  0  0  0
  -10.6912   -1.9908  -23.9768 C   0  0  0  0  0  0  0  0  0  0  0  0
  -11.4030   -3.0889  -24.7100 C   0  0  0  0  0  0  0  0  0  0  0  0
  -10.6687   -4.3445  -25.0765 C   0  0  0  0  0  0  0  0  0  0  0  0
   -9.2228   -4.5020  -24.7099 C   0  0  0  0  0  0  0  0  0  0  0  0
   -8.8118   -5.8518  -25.2192 Cl  0  0  0  0  0  0  0  0  0  0  0  0
   -8.5110   -3.4039  -23.9767 C   0  0  0  0  0  0  0  0  0  0  0  0
   -9.2453   -2.1483  -23.6102 C   0  0  0  0  0  0  0  0  0  0  0  0
   -8.5335   -1.0501  -22.8770 C   0  0  0  0  0  0  0  0  0  0  0  0
   -9.2678    0.2054  -22.5104 C   0  0  0  0  0  0  0  0  0  0  0  0
  -10.7137    0.3629  -22.8771 N   0  0  0  0  0  0  0  0  0  0  0  0
   -7.6941   -0.0433  -22.1478 C   0  0  0  0  0  0  0  0  0  0  0  0
   -8.1533    1.2978  -21.6572 O   0  0  0  0  0  0  0  0  0  0  0  0
   -6.3149   -0.6130  -21.9953 N   0  0  0  0  0  0  0  0  0  0  0  0
   -6.3019   -1.9719  -22.6303 C   0  0  0  0  0  0  0  0  0  0  0  0
   -7.6731   -2.2421  -23.1751 C   0  0  0  0  0  0  0  0  0  0  0  0
   -5.1528    0.0584  -21.3255 C   0  0  0  0  0  0  0  0  0  0  0  0
   -5.2085    0.3672  -19.8588 C   0  0  0  0  0  0  0  0  0  0  0  0
   -4.0464    1.0386  -19.1890 N   0  0  0  0  0  0  0  0  0  0  0  0
   -2.8285    1.4011  -19.9860 C   0  0  0  0  0  0  0  0  0  0  0  0
   -2.7727    1.0922  -21.4528 C   0  0  0  0  0  0  0  0  0  0  0  0
   -1.5547    1.4548  -22.2498 C   0  0  0  0  0  0  0  0  0  0  0  0
   -1.4990    1.1459  -23.7166 C   0  0  0  0  0  0  0  0  0  0  0  0
   -2.6612    0.4746  -24.3863 C   0  0  0  0  0  0  0  0  0  0  0  0
   -3.8791    0.1120  -23.5893 C   0  0  0  0  0  0  0  0  0  0  0  0
   -3.9349    0.4209  -22.1226 C   0  0  0  0  0  0  0  0  0  0  0  0
  -11.4479    1.6186  -22.5105 C   0  0  0  0  0  0  0  0  0  0  0  0
  -11.7985    2.6193  -23.5714 C   0  0  0  0  0  0  0  0  0  0  0  0
  -10.7177    3.2278  -24.4150 C   0  0  0  0  0  0  0  0  0  0  0  0
  -11.0683    4.2285  -25.4759 C   0  0  0  0  0  0  0  0  0  0  0  0
  -12.4997    4.6207  -25.6934 N   0  0  0  0  0  0  0  0  0  0  0  0
  -13.5805    4.0122  -24.8498 N   0  0  0  0  0  0  0  0  0  0  0  0
  -13.2299    3.0115  -23.7888 C   0  0  0  0  0  0  0  0  0  0  0  0
   -8.1075   -3.4859  -23.8923 C   0  0  0  0  0  0  0  0  0  0  0  0
   -8.0353   -4.8147  -23.2003 N   0  0  0  0  0  0  0  0  0  0  0  0
   -8.8484   -5.2135  -22.8142 H   0  0  0  0  0  0  0  0  0  0  0  0
   -6.7244   -5.5361  -23.0966 C   0  0  0  0  0  0  0  0  0  0  0  0
   -6.3751   -6.2806  -21.8421 C   0  0  0  0  0  0  0  0  0  0  0  0
   -5.0641   -7.0020  -21.7384 C   0  0  0  0  0  0  0  0  0  0  0  0
   -4.1023   -6.9790  -22.8893 N   0  0  0  0  0  0  0  0  0  0  0  0
   -4.4516   -6.2346  -24.1438 C   0  0  0  0  0  0  0  0  0  0  0  0
   -5.7625   -5.5132  -24.2475 N   0  0  0  0  0  0  0  0  0  0  0  0
  1  2  2  0  0  0
  2  3  1  0  0  0
  3  4  2  0  0  0
  4  5  1  0  0  0
  5  6  2  0  0  0
  6  7  1  0  0  0
  6  8  1  0  0  0
  8  9  2  0  0  0
  9 10  1  0  0  0
 10 11  1  0  0  0
 11 12  1  0  0  0
 12 28  1  0  0  0
 28 29  1  0  0  0
 29 30  2  0  0  0
 30 31  1  0  0  0
 31 32  2  0  0  0
 32 33  1  0  0  0
 33 34  2  0  0  0
 10 13  1  0  0  0
 13 14  2  0  0  0
 13 15  1  0  0  0
 15 18  1  0  0  0
 18 19  2  0  0  0
 19 20  1  0  0  0
 20 21  2  0  0  0
 21 22  1  0  0  0
 22 23  2  0  0  0
 23 24  1  0  0  0
 24 25  2  0  0  0
 25 26  1  0  0  0
 26 27  2  0  0  0
 15 16  1  0  0  0
 16 17  1  0  0  0
 17 35  1  0  0  0
 35 36  1  0  0  0
 36 38  1  0  0  0
 38 39  2  0  0  0
 39 40  1  0  0  0
 40 41  2  0  0  0
 41 42  1  0  0  0
 42 43  2  0  0  0
 12  2  1  0  0  0
 34 29  1  0  0  0
 27 18  1  0  0  0
 43 38  1  0  0  0
  9  3  1  0  0  0
 17 10  1  0  0  0
 27 22  1  0  0  0
 36 37  1  0  0  0
M  END
> <minimizedAffinity>
-8.63822

> <CNNscore>
0.1299195588

> <CNNaffinity>
6.5476255417

> <CNN_VS>
0.8506646156

> <CNNaffinity_variance>
0.2512100637

$$$$
