


 43 49  0  0  0  0  0  0  0  0999 V2000
    7.0378   -6.4557   24.8143 O   0  0  0  0  0  0  0  0  0  0  0  0
    7.0447   -5.1556   24.0661 C   0  0  0  0  0  0  0  0  0  0  0  0
    8.0628   -4.1050   24.3974 C   0  0  0  0  0  0  0  0  0  0  0  0
    9.0740   -4.3545   25.4769 C   0  0  0  0  0  0  0  0  0  0  0  0
   10.0920   -3.3039   25.8081 C   0  0  0  0  0  0  0  0  0  0  0  0
   10.0989   -2.0038   25.0599 C   0  0  0  0  0  0  0  0  0  0  0  0
   11.2270   -1.2008   25.6367 Cl  0  0  0  0  0  0  0  0  0  0  0  0
    9.0877   -1.7543   23.9805 C   0  0  0  0  0  0  0  0  0  0  0  0
    8.0696   -2.8049   23.6493 C   0  0  0  0  0  0  0  0  0  0  0  0
    7.0583   -2.5555   22.5698 C   0  0  0  0  0  0  0  0  0  0  0  0
    6.0403   -3.6061   22.2385 C   0  0  0  0  0  0  0  0  0  0  0  0
    6.0335   -4.9062   22.9867 N   0  0  0  0  0  0  0  0  0  0  0  0
    6.1145   -2.1655   21.4711 C   0  0  0  0  0  0  0  0  0  0  0  0
    4.9981   -3.0071   20.9277 O   0  0  0  0  0  0  0  0  0  0  0  0
    6.4831   -0.7861   21.0112 N   0  0  0  0  0  0  0  0  0  0  0  0
    7.6547   -0.3236   21.8257 C   0  0  0  0  0  0  0  0  0  0  0  0
    8.0102   -1.4171   22.7889 C   0  0  0  0  0  0  0  0  0  0  0  0
    5.7999   -0.0063   19.9272 C   0  0  0  0  0  0  0  0  0  0  0  0
    6.3005   -0.0875   18.5156 C   0  0  0  0  0  0  0  0  0  0  0  0
    5.6173    0.6924   17.4316 N   0  0  0  0  0  0  0  0  0  0  0  0
    4.4337    1.5535   17.7593 C   0  0  0  0  0  0  0  0  0  0  0  0
    3.9331    1.6347   19.1710 C   0  0  0  0  0  0  0  0  0  0  0  0
    2.7494    2.4959   19.4986 C   0  0  0  0  0  0  0  0  0  0  0  0
    2.2489    2.5770   20.9104 C   0  0  0  0  0  0  0  0  0  0  0  0
    2.9321    1.7972   21.9943 C   0  0  0  0  0  0  0  0  0  0  0  0
    4.1157    0.9361   21.6666 C   0  0  0  0  0  0  0  0  0  0  0  0
    4.6162    0.8548   20.2550 C   0  0  0  0  0  0  0  0  0  0  0  0
    5.0153   -5.9568   22.6554 C   0  0  0  0  0  0  0  0  0  0  0  0
    3.7941   -6.1143   23.5120 C   0  0  0  0  0  0  0  0  0  0  0  0
    2.6182   -6.8956   23.0052 C   0  0  0  0  0  0  0  0  0  0  0  0
    1.3970   -7.0531   23.8618 C   0  0  0  0  0  0  0  0  0  0  0  0
    1.3517   -6.4294   25.2253 N   0  0  0  0  0  0  0  0  0  0  0  0
    2.5276   -5.6481   25.7321 N   0  0  0  0  0  0  0  0  0  0  0  0
    3.7489   -5.4906   24.8754 C   0  0  0  0  0  0  0  0  0  0  0  0
    9.1224   -1.3789   23.7947 C   0  0  0  0  0  0  0  0  0  0  0  0
   10.4528   -0.7961   23.4202 N   0  0  0  0  0  0  0  0  0  0  0  0
   11.2351   -1.3841   23.3128 H   0  0  0  0  0  0  0  0  0  0  0  0
   10.5914    0.6824   23.2093 C   0  0  0  0  0  0  0  0  0  0  0  0
   11.9470    1.2843   22.9853 C   0  0  0  0  0  0  0  0  0  0  0  0
   12.0855    2.7629   22.7743 C   0  0  0  0  0  0  0  0  0  0  0  0
   10.8685    3.6397   22.7874 N   0  0  0  0  0  0  0  0  0  0  0  0
    9.5130    3.0378   23.0114 C   0  0  0  0  0  0  0  0  0  0  0  0
    9.3744    1.5593   23.2223 N   0  0  0  0  0  0  0  0  0  0  0  0
  1  2  2  0  0  0
  2  3  1  0  0  0
  3  4  2  0  0  0
  4  5  1  0  0  0
  5  6  2  0  0  0
  6  7  1  0  0  0
  6  8  1  0  0  0
  8  9  2  0  0  0
  9 10  1  0  0  0
 10 11  1  0  0  0
 11 12  1  0  0  0
 12 28  1  0  0  0
 28 29  1  0  0  0
 29 30  2  0  0  0
 30 31  1  0  0  0
 31 32  2  0  0  0
 32 33  1  0  0  0
 33 34  2  0  0  0
 10 13  1  0  0  0
 13 14  2  0  0  0
 13 15  1  0  0  0
 15 18  1  0  0  0
 18 19  2  0  0  0
 19 20  1  0  0  0
 20 21  2  0  0  0
 21 22  1  0  0  0
 22 23  2  0  0  0
 23 24  1  0  0  0
 24 25  2  0  0  0
 25 26  1  0  0  0
 26 27  2  0  0  0
 15 16  1  0  0  0
 16 17  1  0  0  0
 17 35  1  0  0  0
 35 36  1  0  0  0
 36 38  1  0  0  0
 38 39  2  0  0  0
 39 40  1  0  0  0
 40 41  2  0  0  0
 41 42  1  0  0  0
 42 43  2  0  0  0
 12  2  1  0  0  0
 34 29  1  0  0  0
 27 18  1  0  0  0
 43 38  1  0  0  0
  9  3  1  0  0  0
 17 10  1  0  0  0
 27 22  1  0  0  0
 36 37  1  0  0  0
M  END
> <minimizedAffinity>
-9.10656

> <CNNscore>
0.6483349204

> <CNNaffinity>
7.3781204224

> <CNN_VS>
4.7834930420

> <CNNaffinity_variance>
0.0892588049

$$$$



 43 49  0  0  0  0  0  0  0  0999 V2000
   12.1199   -0.6048   25.3830 O   0  0  0  0  0  0  0  0  0  0  0  0
   10.8255   -0.6364   24.6256 C   0  0  0  0  0  0  0  0  0  0  0  0
    9.6768   -1.4541   25.1375 C   0  0  0  0  0  0  0  0  0  0  0  0
    9.8225   -2.2401   26.4067 C   0  0  0  0  0  0  0  0  0  0  0  0
    8.6739   -3.0578   26.9186 C   0  0  0  0  0  0  0  0  0  0  0  0
    7.3795   -3.0894   26.1612 C   0  0  0  0  0  0  0  0  0  0  0  0
    6.4661   -3.9882   26.9410 Cl  0  0  0  0  0  0  0  0  0  0  0  0
    7.2338   -2.3034   24.8920 C   0  0  0  0  0  0  0  0  0  0  0  0
    8.3825   -1.4858   24.3802 C   0  0  0  0  0  0  0  0  0  0  0  0
    8.2368   -0.6997   23.1109 C   0  0  0  0  0  0  0  0  0  0  0  0
    9.3854    0.1179   22.5991 C   0  0  0  0  0  0  0  0  0  0  0  0
   10.6798    0.1496   23.3564 N   0  0  0  0  0  0  0  0  0  0  0  0
    7.9444    0.0307   21.8338 C   0  0  0  0  0  0  0  0  0  0  0  0
    8.8951    0.9211   21.0898 O   0  0  0  0  0  0  0  0  0  0  0  0
    6.5344   -0.2855   21.4312 N   0  0  0  0  0  0  0  0  0  0  0  0
    5.9554   -1.2114   22.4596 C   0  0  0  0  0  0  0  0  0  0  0  0
    7.0075   -1.4674   23.4976 C   0  0  0  0  0  0  0  0  0  0  0  0
    5.8277    0.2332   20.2141 C   0  0  0  0  0  0  0  0  0  0  0  0
    6.2139   -0.2653   18.8532 C   0  0  0  0  0  0  0  0  0  0  0  0
    5.5071    0.2534   17.6360 N   0  0  0  0  0  0  0  0  0  0  0  0
    4.4141    1.2705   17.7799 C   0  0  0  0  0  0  0  0  0  0  0  0
    4.0278    1.7689   19.1409 C   0  0  0  0  0  0  0  0  0  0  0  0
    2.9347    2.7861   19.2847 C   0  0  0  0  0  0  0  0  0  0  0  0
    2.5485    3.2845   20.6458 C   0  0  0  0  0  0  0  0  0  0  0  0
    3.2553    2.7658   21.8629 C   0  0  0  0  0  0  0  0  0  0  0  0
    4.3483    1.7487   21.7190 C   0  0  0  0  0  0  0  0  0  0  0  0
    4.7346    1.2503   20.3581 C   0  0  0  0  0  0  0  0  0  0  0  0
   11.8285    0.9673   22.8445 C   0  0  0  0  0  0  0  0  0  0  0  0
   11.6900    2.4550   22.7125 C   0  0  0  0  0  0  0  0  0  0  0  0
   10.3988    3.1237   23.0808 C   0  0  0  0  0  0  0  0  0  0  0  0
   10.2603    4.6114   22.9487 C   0  0  0  0  0  0  0  0  0  0  0  0
   11.4131    5.4305   22.4484 N   0  0  0  0  0  0  0  0  0  0  0  0
   12.7043    4.7618   22.0801 N   0  0  0  0  0  0  0  0  0  0  0  0
   12.8427    3.2740   22.2122 C   0  0  0  0  0  0  0  0  0  0  0  0
    6.8567   -2.3382   24.7096 C   0  0  0  0  0  0  0  0  0  0  0  0
    5.9002   -3.4935   24.6890 N   0  0  0  0  0  0  0  0  0  0  0  0
    5.1378   -3.5125   25.3116 H   0  0  0  0  0  0  0  0  0  0  0  0
    6.1052   -4.6197   23.7198 C   0  0  0  0  0  0  0  0  0  0  0  0
    7.0142   -5.7588   24.0751 C   0  0  0  0  0  0  0  0  0  0  0  0
    7.2192   -6.8851   23.1058 C   0  0  0  0  0  0  0  0  0  0  0  0
    6.5152   -6.8724   21.7814 N   0  0  0  0  0  0  0  0  0  0  0  0
    5.6063   -5.7333   21.4261 C   0  0  0  0  0  0  0  0  0  0  0  0
    5.4012   -4.6070   22.3953 N   0  0  0  0  0  0  0  0  0  0  0  0
  1  2  2  0  0  0
  2  3  1  0  0  0
  3  4  2  0  0  0
  4  5  1  0  0  0
  5  6  2  0  0  0
  6  7  1  0  0  0
  6  8  1  0  0  0
  8  9  2  0  0  0
  9 10  1  0  0  0
 10 11  1  0  0  0
 11 12  1  0  0  0
 12 28  1  0  0  0
 28 29  1  0  0  0
 29 30  2  0  0  0
 30 31  1  0  0  0
 31 32  2  0  0  0
 32 33  1  0  0  0
 33 34  2  0  0  0
 10 13  1  0  0  0
 13 14  2  0  0  0
 13 15  1  0  0  0
 15 18  1  0  0  0
 18 19  2  0  0  0
 19 20  1  0  0  0
 20 21  2  0  0  0
 21 22  1  0  0  0
 22 23  2  0  0  0
 23 24  1  0  0  0
 24 25  2  0  0  0
 25 26  1  0  0  0
 26 27  2  0  0  0
 15 16  1  0  0  0
 16 17  1  0  0  0
 17 35  1  0  0  0
 35 36  1  0  0  0
 36 38  1  0  0  0
 38 39  2  0  0  0
 39 40  1  0  0  0
 40 41  2  0  0  0
 41 42  1  0  0  0
 42 43  2  0  0  0
 12  2  1  0  0  0
 34 29  1  0  0  0
 27 18  1  0  0  0
 43 38  1  0  0  0
  9  3  1  0  0  0
 17 10  1  0  0  0
 27 22  1  0  0  0
 36 37  1  0  0  0
M  END
> <minimizedAffinity>
-8.93779

> <CNNscore>
0.4317306578

> <CNNaffinity>
7.1678748131

> <CNN_VS>
3.0945913792

> <CNNaffinity_variance>
0.3145794868

$$$$



 43 49  0  0  0  0  0  0  0  0999 V2000
    8.1298   -3.6142   27.3994 O   0  0  0  0  0  0  0  0  0  0  0  0
    8.1190   -2.9499   26.0546 C   0  0  0  0  0  0  0  0  0  0  0  0
    9.4123   -2.5894   25.3857 C   0  0  0  0  0  0  0  0  0  0  0  0
   10.7164   -2.8932   26.0616 C   0  0  0  0  0  0  0  0  0  0  0  0
   12.0097   -2.5327   25.3927 C   0  0  0  0  0  0  0  0  0  0  0  0
   11.9988   -1.8684   24.0478 C   0  0  0  0  0  0  0  0  0  0  0  0
   13.4375   -1.6539   23.6811 Cl  0  0  0  0  0  0  0  0  0  0  0  0
   10.6947   -1.5646   23.3719 C   0  0  0  0  0  0  0  0  0  0  0  0
    9.4015   -1.9251   24.0408 C   0  0  0  0  0  0  0  0  0  0  0  0
    8.0972   -1.6213   23.3649 C   0  0  0  0  0  0  0  0  0  0  0  0
    6.8040   -1.9818   24.0338 C   0  0  0  0  0  0  0  0  0  0  0  0
    6.8148   -2.6461   25.3786 N   0  0  0  0  0  0  0  0  0  0  0  0
    6.8777   -1.2573   22.5711 C   0  0  0  0  0  0  0  0  0  0  0  0
    5.4548   -1.4937   22.9828 O   0  0  0  0  0  0  0  0  0  0  0  0
    7.3307   -0.6154   21.2933 N   0  0  0  0  0  0  0  0  0  0  0  0
    8.8303   -0.5827   21.2974 C   0  0  0  0  0  0  0  0  0  0  0  0
    9.3041   -1.2044   22.5777 C   0  0  0  0  0  0  0  0  0  0  0  0
    6.4404   -0.0972   20.2030 C   0  0  0  0  0  0  0  0  0  0  0  0
    6.4523   -0.7487   18.8520 C   0  0  0  0  0  0  0  0  0  0  0  0
    5.5620   -0.2305   17.7616 N   0  0  0  0  0  0  0  0  0  0  0  0
    4.6599    0.9392   18.0223 C   0  0  0  0  0  0  0  0  0  0  0  0
    4.6480    1.5907   19.3735 C   0  0  0  0  0  0  0  0  0  0  0  0
    3.7459    2.7604   19.6342 C   0  0  0  0  0  0  0  0  0  0  0  0
    3.7341    3.4118   20.9853 C   0  0  0  0  0  0  0  0  0  0  0  0
    4.6243    2.8936   22.0756 C   0  0  0  0  0  0  0  0  0  0  0  0
    5.5265    1.7239   21.8148 C   0  0  0  0  0  0  0  0  0  0  0  0
    5.5383    1.0725   20.4638 C   0  0  0  0  0  0  0  0  0  0  0  0
    5.5215   -3.0066   26.0475 C   0  0  0  0  0  0  0  0  0  0  0  0
    5.2733   -2.5986   27.4695 C   0  0  0  0  0  0  0  0  0  0  0  0
    4.9022   -3.6313   28.4922 C   0  0  0  0  0  0  0  0  0  0  0  0
    4.6541   -3.2234   29.9141 C   0  0  0  0  0  0  0  0  0  0  0  0
    4.7771   -1.7827   30.3134 N   0  0  0  0  0  0  0  0  0  0  0  0
    5.1482   -0.7500   29.2908 N   0  0  0  0  0  0  0  0  0  0  0  0
    5.3963   -1.1580   27.8688 C   0  0  0  0  0  0  0  0  0  0  0  0
   10.7337   -1.3785   22.9971 C   0  0  0  0  0  0  0  0  0  0  0  0
   11.4559   -0.2573   23.6836 N   0  0  0  0  0  0  0  0  0  0  0  0
   12.0920   -0.4528   24.4091 H   0  0  0  0  0  0  0  0  0  0  0  0
   11.2091    1.1616   23.2647 C   0  0  0  0  0  0  0  0  0  0  0  0
    9.8463    1.7662   23.4300 C   0  0  0  0  0  0  0  0  0  0  0  0
    9.5996    3.1852   23.0112 C   0  0  0  0  0  0  0  0  0  0  0  0
   10.7155    3.9997   22.4270 N   0  0  0  0  0  0  0  0  0  0  0  0
   12.0783    3.3951   22.2617 C   0  0  0  0  0  0  0  0  0  0  0  0
   12.3251    1.9762   22.6805 N   0  0  0  0  0  0  0  0  0  0  0  0
  1  2  2  0  0  0
  2  3  1  0  0  0
  3  4  2  0  0  0
  4  5  1  0  0  0
  5  6  2  0  0  0
  6  7  1  0  0  0
  6  8  1  0  0  0
  8  9  2  0  0  0
  9 10  1  0  0  0
 10 11  1  0  0  0
 11 12  1  0  0  0
 12 28  1  0  0  0
 28 29  1  0  0  0
 29 30  2  0  0  0
 30 31  1  0  0  0
 31 32  2  0  0  0
 32 33  1  0  0  0
 33 34  2  0  0  0
 10 13  1  0  0  0
 13 14  2  0  0  0
 13 15  1  0  0  0
 15 18  1  0  0  0
 18 19  2  0  0  0
 19 20  1  0  0  0
 20 21  2  0  0  0
 21 22  1  0  0  0
 22 23  2  0  0  0
 23 24  1  0  0  0
 24 25  2  0  0  0
 25 26  1  0  0  0
 26 27  2  0  0  0
 15 16  1  0  0  0
 16 17  1  0  0  0
 17 35  1  0  0  0
 35 36  1  0  0  0
 36 38  1  0  0  0
 38 39  2  0  0  0
 39 40  1  0  0  0
 40 41  2  0  0  0
 41 42  1  0  0  0
 42 43  2  0  0  0
 12  2  1  0  0  0
 34 29  1  0  0  0
 27 18  1  0  0  0
 43 38  1  0  0  0
  9  3  1  0  0  0
 17 10  1  0  0  0
 27 22  1  0  0  0
 36 37  1  0  0  0
M  END
> <minimizedAffinity>
-9.05079

> <CNNscore>
0.3534506559

> <CNNaffinity>
7.1140618324

> <CNN_VS>
2.5144698620

> <CNNaffinity_variance>
0.3847733438

$$$$



 43 49  0  0  0  0  0  0  0  0999 V2000
    4.7930   -2.5065   20.5301 O   0  0  0  0  0  0  0  0  0  0  0  0
    5.8838   -1.6799   21.1441 C   0  0  0  0  0  0  0  0  0  0  0  0
    6.6765   -2.2212   22.2969 C   0  0  0  0  0  0  0  0  0  0  0  0
    6.3784   -3.5890   22.8355 C   0  0  0  0  0  0  0  0  0  0  0  0
    7.1711   -4.1302   23.9882 C   0  0  0  0  0  0  0  0  0  0  0  0
    8.2618   -3.3036   24.6022 C   0  0  0  0  0  0  0  0  0  0  0  0
    8.8370   -4.1354   25.7102 Cl  0  0  0  0  0  0  0  0  0  0  0  0
    8.5599   -1.9358   24.0636 C   0  0  0  0  0  0  0  0  0  0  0  0
    7.7672   -1.3946   22.9109 C   0  0  0  0  0  0  0  0  0  0  0  0
    8.0652   -0.0267   22.3722 C   0  0  0  0  0  0  0  0  0  0  0  0
    7.2726    0.5145   21.2195 C   0  0  0  0  0  0  0  0  0  0  0  0
    6.1818   -0.3121   20.6055 N   0  0  0  0  0  0  0  0  0  0  0  0
    8.4753    1.3509   21.9431 C   0  0  0  0  0  0  0  0  0  0  0  0
    7.8667    2.1438   20.8247 O   0  0  0  0  0  0  0  0  0  0  0  0
    9.6009    1.7965   22.8288 N   0  0  0  0  0  0  0  0  0  0  0  0
    9.8865    0.6943   23.8054 C   0  0  0  0  0  0  0  0  0  0  0  0
    8.9374   -0.4325   23.5231 C   0  0  0  0  0  0  0  0  0  0  0  0
   10.3155    3.1131   22.7516 C   0  0  0  0  0  0  0  0  0  0  0  0
   11.7714    3.1564   22.3935 C   0  0  0  0  0  0  0  0  0  0  0  0
   12.4859    4.4730   22.3162 N   0  0  0  0  0  0  0  0  0  0  0  0
   11.7444    5.7463   22.5971 C   0  0  0  0  0  0  0  0  0  0  0  0
   10.2884    5.7030   22.9553 C   0  0  0  0  0  0  0  0  0  0  0  0
    9.5470    6.9764   23.2362 C   0  0  0  0  0  0  0  0  0  0  0  0
    8.0910    6.9329   23.5944 C   0  0  0  0  0  0  0  0  0  0  0  0
    7.3766    5.6164   23.6716 C   0  0  0  0  0  0  0  0  0  0  0  0
    8.1180    4.3431   23.3907 C   0  0  0  0  0  0  0  0  0  0  0  0
    9.5739    4.3864   23.0325 C   0  0  0  0  0  0  0  0  0  0  0  0
    5.3891    0.2292   19.4528 C   0  0  0  0  0  0  0  0  0  0  0  0
    4.2159    1.1289   19.7060 C   0  0  0  0  0  0  0  0  0  0  0  0
    3.6306    1.2283   21.0835 C   0  0  0  0  0  0  0  0  0  0  0  0
    2.4574    2.1279   21.3368 C   0  0  0  0  0  0  0  0  0  0  0  0
    1.8694    2.9282   20.2125 N   0  0  0  0  0  0  0  0  0  0  0  0
    2.4548    2.8288   18.8350 N   0  0  0  0  0  0  0  0  0  0  0  0
    3.6280    1.9291   18.5818 C   0  0  0  0  0  0  0  0  0  0  0  0
    8.8720   -1.7362   24.2621 C   0  0  0  0  0  0  0  0  0  0  0  0
    9.5119   -1.8659   25.6126 N   0  0  0  0  0  0  0  0  0  0  0  0
    8.9643   -1.7837   26.4266 H   0  0  0  0  0  0  0  0  0  0  0  0
   10.9858   -2.1207   25.7228 C   0  0  0  0  0  0  0  0  0  0  0  0
   11.9590   -1.1963   25.0531 C   0  0  0  0  0  0  0  0  0  0  0  0
   13.4330   -1.4512   25.1634 C   0  0  0  0  0  0  0  0  0  0  0  0
   13.9340   -2.6305   25.9433 N   0  0  0  0  0  0  0  0  0  0  0  0
   12.9609   -3.5549   26.6130 C   0  0  0  0  0  0  0  0  0  0  0  0
   11.4869   -3.3001   26.5028 N   0  0  0  0  0  0  0  0  0  0  0  0
  1  2  2  0  0  0
  2  3  1  0  0  0
  3  4  2  0  0  0
  4  5  1  0  0  0
  5  6  2  0  0  0
  6  7  1  0  0  0
  6  8  1  0  0  0
  8  9  2  0  0  0
  9 10  1  0  0  0
 10 11  1  0  0  0
 11 12  1  0  0  0
 12 28  1  0  0  0
 28 29  1  0  0  0
 29 30  2  0  0  0
 30 31  1  0  0  0
 31 32  2  0  0  0
 32 33  1  0  0  0
 33 34  2  0  0  0
 10 13  1  0  0  0
 13 14  2  0  0  0
 13 15  1  0  0  0
 15 18  1  0  0  0
 18 19  2  0  0  0
 19 20  1  0  0  0
 20 21  2  0  0  0
 21 22  1  0  0  0
 22 23  2  0  0  0
 23 24  1  0  0  0
 24 25  2  0  0  0
 25 26  1  0  0  0
 26 27  2  0  0  0
 15 16  1  0  0  0
 16 17  1  0  0  0
 17 35  1  0  0  0
 35 36  1  0  0  0
 36 38  1  0  0  0
 38 39  2  0  0  0
 39 40  1  0  0  0
 40 41  2  0  0  0
 41 42  1  0  0  0
 42 43  2  0  0  0
 12  2  1  0  0  0
 34 29  1  0  0  0
 27 18  1  0  0  0
 43 38  1  0  0  0
  9  3  1  0  0  0
 17 10  1  0  0  0
 27 22  1  0  0  0
 36 37  1  0  0  0
M  END
> <minimizedAffinity>
-9.34016

> <CNNscore>
0.3433890343

> <CNNaffinity>
7.1618471146

> <CNN_VS>
2.4592998028

> <CNNaffinity_variance>
0.3117172718

$$$$



 43 49  0  0  0  0  0  0  0  0999 V2000
    3.3244    2.2351   22.1680 O   0  0  0  0  0  0  0  0  0  0  0  0
    4.1464    1.3174   23.0236 C   0  0  0  0  0  0  0  0  0  0  0  0
    3.5454    0.6963   24.2496 C   0  0  0  0  0  0  0  0  0  0  0  0
    2.1225    0.9929   24.6200 C   0  0  0  0  0  0  0  0  0  0  0  0
    1.5216    0.3717   25.8459 C   0  0  0  0  0  0  0  0  0  0  0  0
    2.3436   -0.5460   26.7015 C   0  0  0  0  0  0  0  0  0  0  0  0
    1.4468   -0.9791   27.8234 Cl  0  0  0  0  0  0  0  0  0  0  0  0
    3.7665   -0.8426   26.3312 C   0  0  0  0  0  0  0  0  0  0  0  0
    4.3675   -0.2215   25.1052 C   0  0  0  0  0  0  0  0  0  0  0  0
    5.7905   -0.5180   24.7348 C   0  0  0  0  0  0  0  0  0  0  0  0
    6.3914    0.1031   23.5088 C   0  0  0  0  0  0  0  0  0  0  0  0
    5.5694    1.0208   22.6532 N   0  0  0  0  0  0  0  0  0  0  0  0
    7.2190   -0.9059   24.4921 C   0  0  0  0  0  0  0  0  0  0  0  0
    8.0763   -0.4441   23.3512 O   0  0  0  0  0  0  0  0  0  0  0  0
    7.6397   -1.8366   25.5906 N   0  0  0  0  0  0  0  0  0  0  0  0
    6.4712   -2.0240   26.5123 C   0  0  0  0  0  0  0  0  0  0  0  0
    5.3283   -1.2091   25.9834 C   0  0  0  0  0  0  0  0  0  0  0  0
    8.9916   -2.4689   25.7411 C   0  0  0  0  0  0  0  0  0  0  0  0
    9.1238   -3.8073   26.4051 C   0  0  0  0  0  0  0  0  0  0  0  0
   10.4757   -4.4396   26.5555 N   0  0  0  0  0  0  0  0  0  0  0  0
   11.6953   -3.7334   26.0419 C   0  0  0  0  0  0  0  0  0  0  0  0
   11.5630   -2.3949   25.3779 C   0  0  0  0  0  0  0  0  0  0  0  0
   12.7827   -1.6887   24.8642 C   0  0  0  0  0  0  0  0  0  0  0  0
   12.6504   -0.3502   24.2002 C   0  0  0  0  0  0  0  0  0  0  0  0
   11.2985    0.2820   24.0498 C   0  0  0  0  0  0  0  0  0  0  0  0
   10.0789   -0.4242   24.5634 C   0  0  0  0  0  0  0  0  0  0  0  0
   10.2112   -1.7626   25.2274 C   0  0  0  0  0  0  0  0  0  0  0  0
    6.1704    1.6420   21.4272 C   0  0  0  0  0  0  0  0  0  0  0  0
    5.9085    1.0424   20.0774 C   0  0  0  0  0  0  0  0  0  0  0  0
    4.8191    1.5977   19.2086 C   0  0  0  0  0  0  0  0  0  0  0  0
    4.5572    0.9982   17.8589 C   0  0  0  0  0  0  0  0  0  0  0  0
    5.3848   -0.1568   17.3779 N   0  0  0  0  0  0  0  0  0  0  0  0
    6.4742   -0.7121   18.2467 N   0  0  0  0  0  0  0  0  0  0  0  0
    6.7360   -0.1125   19.5965 C   0  0  0  0  0  0  0  0  0  0  0  0
    3.9630   -1.1037   26.5955 C   0  0  0  0  0  0  0  0  0  0  0  0
    3.7569   -0.2802   27.8322 N   0  0  0  0  0  0  0  0  0  0  0  0
    3.0995    0.4526   27.8317 H   0  0  0  0  0  0  0  0  0  0  0  0
    4.5524   -0.5732   29.0696 C   0  0  0  0  0  0  0  0  0  0  0  0
    4.5051   -1.9401   29.6856 C   0  0  0  0  0  0  0  0  0  0  0  0
    5.3006   -2.2330   30.9230 C   0  0  0  0  0  0  0  0  0  0  0  0
    6.1435   -1.1591   31.5445 N   0  0  0  0  0  0  0  0  0  0  0  0
    6.1908    0.2078   30.9286 C   0  0  0  0  0  0  0  0  0  0  0  0
    5.3953    0.5007   29.6912 N   0  0  0  0  0  0  0  0  0  0  0  0
  1  2  2  0  0  0
  2  3  1  0  0  0
  3  4  2  0  0  0
  4  5  1  0  0  0
  5  6  2  0  0  0
  6  7  1  0  0  0
  6  8  1  0  0  0
  8  9  2  0  0  0
  9 10  1  0  0  0
 10 11  1  0  0  0
 11 12  1  0  0  0
 12 28  1  0  0  0
 28 29  1  0  0  0
 29 30  2  0  0  0
 30 31  1  0  0  0
 31 32  2  0  0  0
 32 33  1  0  0  0
 33 34  2  0  0  0
 10 13  1  0  0  0
 13 14  2  0  0  0
 13 15  1  0  0  0
 15 18  1  0  0  0
 18 19  2  0  0  0
 19 20  1  0  0  0
 20 21  2  0  0  0
 21 22  1  0  0  0
 22 23  2  0  0  0
 23 24  1  0  0  0
 24 25  2  0  0  0
 25 26  1  0  0  0
 26 27  2  0  0  0
 15 16  1  0  0  0
 16 17  1  0  0  0
 17 35  1  0  0  0
 35 36  1  0  0  0
 36 38  1  0  0  0
 38 39  2  0  0  0
 39 40  1  0  0  0
 40 41  2  0  0  0
 41 42  1  0  0  0
 42 43  2  0  0  0
 12  2  1  0  0  0
 34 29  1  0  0  0
 27 18  1  0  0  0
 43 38  1  0  0  0
  9  3  1  0  0  0
 17 10  1  0  0  0
 27 22  1  0  0  0
 36 37  1  0  0  0
M  END
> <minimizedAffinity>
-7.64804

> <CNNscore>
0.3172067404

> <CNNaffinity>
6.9904503822

> <CNN_VS>
2.2174179554

> <CNNaffinity_variance>
0.1815861613

$$$$



 43 49  0  0  0  0  0  0  0  0999 V2000
    8.0612   -3.5739   27.4131 O   0  0  0  0  0  0  0  0  0  0  0  0
    8.0536   -2.9109   26.0676 C   0  0  0  0  0  0  0  0  0  0  0  0
    9.3475   -2.5234   25.4151 C   0  0  0  0  0  0  0  0  0  0  0  0
   10.6490   -2.7989   26.1081 C   0  0  0  0  0  0  0  0  0  0  0  0
   11.9428   -2.4115   25.4556 C   0  0  0  0  0  0  0  0  0  0  0  0
   11.9352   -1.7485   24.1101 C   0  0  0  0  0  0  0  0  0  0  0  0
   13.3736   -1.5036   23.7618 Cl  0  0  0  0  0  0  0  0  0  0  0  0
   10.6338   -1.4730   23.4171 C   0  0  0  0  0  0  0  0  0  0  0  0
    9.3400   -1.8605   24.0696 C   0  0  0  0  0  0  0  0  0  0  0  0
    8.0384   -1.5850   23.3765 C   0  0  0  0  0  0  0  0  0  0  0  0
    6.7446   -1.9724   24.0290 C   0  0  0  0  0  0  0  0  0  0  0  0
    6.7522   -2.6354   25.3745 N   0  0  0  0  0  0  0  0  0  0  0  0
    6.8218   -1.2475   22.5667 C   0  0  0  0  0  0  0  0  0  0  0  0
    5.3990   -1.5139   22.9602 O   0  0  0  0  0  0  0  0  0  0  0  0
    7.2776   -0.5970   21.2943 N   0  0  0  0  0  0  0  0  0  0  0  0
    8.7760   -0.5324   21.3177 C   0  0  0  0  0  0  0  0  0  0  0  0
    9.2462   -1.1430   22.6046 C   0  0  0  0  0  0  0  0  0  0  0  0
    6.3907   -0.0987   20.1920 C   0  0  0  0  0  0  0  0  0  0  0  0
    6.4068   -0.7744   18.8530 C   0  0  0  0  0  0  0  0  0  0  0  0
    5.5199   -0.2760   17.7507 N   0  0  0  0  0  0  0  0  0  0  0  0
    4.6168    0.8981   17.9875 C   0  0  0  0  0  0  0  0  0  0  0  0
    4.6007    1.5738   19.3267 C   0  0  0  0  0  0  0  0  0  0  0  0
    3.6977    2.7479   19.5635 C   0  0  0  0  0  0  0  0  0  0  0  0
    3.6816    3.4236   20.9026 C   0  0  0  0  0  0  0  0  0  0  0  0
    4.5685    2.9252   22.0048 C   0  0  0  0  0  0  0  0  0  0  0  0
    5.4715    1.7511   21.7679 C   0  0  0  0  0  0  0  0  0  0  0  0
    5.4876    1.0754   20.4289 C   0  0  0  0  0  0  0  0  0  0  0  0
    5.4582   -3.0229   26.0270 C   0  0  0  0  0  0  0  0  0  0  0  0
    5.0664   -4.4680   26.1159 C   0  0  0  0  0  0  0  0  0  0  0  0
    4.2323   -4.9496   27.2659 C   0  0  0  0  0  0  0  0  0  0  0  0
    3.8405   -6.3947   27.3548 C   0  0  0  0  0  0  0  0  0  0  0  0
    4.2826   -7.3584   26.2937 N   0  0  0  0  0  0  0  0  0  0  0  0
    5.1166   -6.8768   25.1437 N   0  0  0  0  0  0  0  0  0  0  0  0
    5.5085   -5.4316   25.0548 C   0  0  0  0  0  0  0  0  0  0  0  0
   10.6737   -1.2863   23.0426 C   0  0  0  0  0  0  0  0  0  0  0  0
   11.3664   -0.1456   23.7274 N   0  0  0  0  0  0  0  0  0  0  0  0
   12.0195   -0.3240   24.4421 H   0  0  0  0  0  0  0  0  0  0  0  0
   11.0640    1.2669   23.3233 C   0  0  0  0  0  0  0  0  0  0  0  0
    9.7069    1.8485   23.5878 C   0  0  0  0  0  0  0  0  0  0  0  0
    9.4046    3.2610   23.1837 C   0  0  0  0  0  0  0  0  0  0  0  0
   10.4594    4.0920   22.5151 N   0  0  0  0  0  0  0  0  0  0  0  0
   11.8165    3.5103   22.2506 C   0  0  0  0  0  0  0  0  0  0  0  0
   12.1188    2.0979   22.6547 N   0  0  0  0  0  0  0  0  0  0  0  0
  1  2  2  0  0  0
  2  3  1  0  0  0
  3  4  2  0  0  0
  4  5  1  0  0  0
  5  6  2  0  0  0
  6  7  1  0  0  0
  6  8  1  0  0  0
  8  9  2  0  0  0
  9 10  1  0  0  0
 10 11  1  0  0  0
 11 12  1  0  0  0
 12 28  1  0  0  0
 28 29  1  0  0  0
 29 30  2  0  0  0
 30 31  1  0  0  0
 31 32  2  0  0  0
 32 33  1  0  0  0
 33 34  2  0  0  0
 10 13  1  0  0  0
 13 14  2  0  0  0
 13 15  1  0  0  0
 15 18  1  0  0  0
 18 19  2  0  0  0
 19 20  1  0  0  0
 20 21  2  0  0  0
 21 22  1  0  0  0
 22 23  2  0  0  0
 23 24  1  0  0  0
 24 25  2  0  0  0
 25 26  1  0  0  0
 26 27  2  0  0  0
 15 16  1  0  0  0
 16 17  1  0  0  0
 17 35  1  0  0  0
 35 36  1  0  0  0
 36 38  1  0  0  0
 38 39  2  0  0  0
 39 40  1  0  0  0
 40 41  2  0  0  0
 41 42  1  0  0  0
 42 43  2  0  0  0
 12  2  1  0  0  0
 34 29  1  0  0  0
 27 18  1  0  0  0
 43 38  1  0  0  0
  9  3  1  0  0  0
 17 10  1  0  0  0
 27 22  1  0  0  0
 36 37  1  0  0  0
M  END
> <minimizedAffinity>
-9.31507

> <CNNscore>
0.3124299943

> <CNNaffinity>
7.0999860764

> <CNN_VS>
2.2182486057

> <CNNaffinity_variance>
0.3368316293

$$$$



 43 49  0  0  0  0  0  0  0  0999 V2000
    7.9321    4.5790   23.3469 O   0  0  0  0  0  0  0  0  0  0  0  0
    7.8872    3.0798   23.3296 C   0  0  0  0  0  0  0  0  0  0  0  0
    9.1547    2.2933   23.1715 C   0  0  0  0  0  0  0  0  0  0  0  0
   10.4669    3.0060   23.0306 C   0  0  0  0  0  0  0  0  0  0  0  0
   11.7343    2.2195   22.8724 C   0  0  0  0  0  0  0  0  0  0  0  0
   11.6894    0.7203   22.8551 C   0  0  0  0  0  0  0  0  0  0  0  0
   13.1089    0.2662   22.6844 Cl  0  0  0  0  0  0  0  0  0  0  0  0
   10.3772    0.0076   22.9960 C   0  0  0  0  0  0  0  0  0  0  0  0
    9.1098    0.7941   23.1542 C   0  0  0  0  0  0  0  0  0  0  0  0
    7.7974    0.0814   23.2950 C   0  0  0  0  0  0  0  0  0  0  0  0
    6.5300    0.8679   23.4532 C   0  0  0  0  0  0  0  0  0  0  0  0
    6.5749    2.3671   23.4705 N   0  0  0  0  0  0  0  0  0  0  0  0
    6.5661   -0.7654   23.4245 C   0  0  0  0  0  0  0  0  0  0  0  0
    5.1634   -0.2616   23.5941 O   0  0  0  0  0  0  0  0  0  0  0  0
    6.9836   -2.2044   23.3547 N   0  0  0  0  0  0  0  0  0  0  0  0
    8.4730   -2.2470   23.1821 C   0  0  0  0  0  0  0  0  0  0  0  0
    8.9759   -0.8343   23.1452 C   0  0  0  0  0  0  0  0  0  0  0  0
    6.0718   -3.3923   23.4422 C   0  0  0  0  0  0  0  0  0  0  0  0
    5.6259   -4.0892   22.1911 C   0  0  0  0  0  0  0  0  0  0  0  0
    4.7141   -5.2771   22.2786 N   0  0  0  0  0  0  0  0  0  0  0  0
    4.2483   -5.7679   23.6173 C   0  0  0  0  0  0  0  0  0  0  0  0
    4.6942   -5.0709   24.8684 C   0  0  0  0  0  0  0  0  0  0  0  0
    4.2282   -5.5618   26.2072 C   0  0  0  0  0  0  0  0  0  0  0  0
    4.6742   -4.8647   27.4582 C   0  0  0  0  0  0  0  0  0  0  0  0
    5.5859   -3.6769   27.3707 C   0  0  0  0  0  0  0  0  0  0  0  0
    6.0518   -3.1861   26.0320 C   0  0  0  0  0  0  0  0  0  0  0  0
    5.6060   -3.8831   24.7810 C   0  0  0  0  0  0  0  0  0  0  0  0
    5.3074    3.1536   23.6287 C   0  0  0  0  0  0  0  0  0  0  0  0
    5.2657    4.5978   23.2257 C   0  0  0  0  0  0  0  0  0  0  0  0
    5.2856    4.9721   21.7733 C   0  0  0  0  0  0  0  0  0  0  0  0
    5.2439    6.4163   21.3703 C   0  0  0  0  0  0  0  0  0  0  0  0
    5.1822    7.4864   22.4198 N   0  0  0  0  0  0  0  0  0  0  0  0
    5.1623    7.1121   23.8722 N   0  0  0  0  0  0  0  0  0  0  0  0
    5.2040    5.6678   24.2752 C   0  0  0  0  0  0  0  0  0  0  0  0
   10.4064   -0.4116   22.9863 C   0  0  0  0  0  0  0  0  0  0  0  0
   11.5039   -1.4303   23.0747 N   0  0  0  0  0  0  0  0  0  0  0  0
   12.0964   -1.5836   22.3035 H   0  0  0  0  0  0  0  0  0  0  0  0
   11.6986   -2.2154   24.3378 C   0  0  0  0  0  0  0  0  0  0  0  0
   12.8647   -1.9182   25.2333 C   0  0  0  0  0  0  0  0  0  0  0  0
   13.0595   -2.7034   26.4964 C   0  0  0  0  0  0  0  0  0  0  0  0
   12.0882   -3.7857   26.8641 N   0  0  0  0  0  0  0  0  0  0  0  0
   10.9221   -4.0828   25.9686 C   0  0  0  0  0  0  0  0  0  0  0  0
   10.7273   -3.2977   24.7055 N   0  0  0  0  0  0  0  0  0  0  0  0
  1  2  2  0  0  0
  2  3  1  0  0  0
  3  4  2  0  0  0
  4  5  1  0  0  0
  5  6  2  0  0  0
  6  7  1  0  0  0
  6  8  1  0  0  0
  8  9  2  0  0  0
  9 10  1  0  0  0
 10 11  1  0  0  0
 11 12  1  0  0  0
 12 28  1  0  0  0
 28 29  1  0  0  0
 29 30  2  0  0  0
 30 31  1  0  0  0
 31 32  2  0  0  0
 32 33  1  0  0  0
 33 34  2  0  0  0
 10 13  1  0  0  0
 13 14  2  0  0  0
 13 15  1  0  0  0
 15 18  1  0  0  0
 18 19  2  0  0  0
 19 20  1  0  0  0
 20 21  2  0  0  0
 21 22  1  0  0  0
 22 23  2  0  0  0
 23 24  1  0  0  0
 24 25  2  0  0  0
 25 26  1  0  0  0
 26 27  2  0  0  0
 15 16  1  0  0  0
 16 17  1  0  0  0
 17 35  1  0  0  0
 35 36  1  0  0  0
 36 38  1  0  0  0
 38 39  2  0  0  0
 39 40  1  0  0  0
 40 41  2  0  0  0
 41 42  1  0  0  0
 42 43  2  0  0  0
 12  2  1  0  0  0
 34 29  1  0  0  0
 27 18  1  0  0  0
 43 38  1  0  0  0
  9  3  1  0  0  0
 17 10  1  0  0  0
 27 22  1  0  0  0
 36 37  1  0  0  0
M  END
> <minimizedAffinity>
-8.60386

> <CNNscore>
0.2206501663

> <CNNaffinity>
7.0374321938

> <CNN_VS>
1.5528105497

> <CNNaffinity_variance>
0.2111572474

$$$$



 43 49  0  0  0  0  0  0  0  0999 V2000
    3.2570    1.9886   22.5465 O   0  0  0  0  0  0  0  0  0  0  0  0
    4.1608    1.0833   23.3298 C   0  0  0  0  0  0  0  0  0  0  0  0
    3.6386    0.3652   24.5388 C   0  0  0  0  0  0  0  0  0  0  0  0
    2.2126    0.5525   24.9646 C   0  0  0  0  0  0  0  0  0  0  0  0
    1.6904   -0.1655   26.1736 C   0  0  0  0  0  0  0  0  0  0  0  0
    2.5942   -1.0709   26.9568 C   0  0  0  0  0  0  0  0  0  0  0  0
    1.7620   -1.6150   28.0800 Cl  0  0  0  0  0  0  0  0  0  0  0  0
    4.0203   -1.2581   26.5310 C   0  0  0  0  0  0  0  0  0  0  0  0
    4.5424   -0.5401   25.3221 C   0  0  0  0  0  0  0  0  0  0  0  0
    5.9685   -0.7274   24.8962 C   0  0  0  0  0  0  0  0  0  0  0  0
    6.4907   -0.0093   23.6873 C   0  0  0  0  0  0  0  0  0  0  0  0
    5.5869    0.8960   22.9040 N   0  0  0  0  0  0  0  0  0  0  0  0
    7.4098   -1.0116   24.5931 C   0  0  0  0  0  0  0  0  0  0  0  0
    8.2003   -0.4404   23.4534 O   0  0  0  0  0  0  0  0  0  0  0  0
    7.9219   -1.9673   25.6296 N   0  0  0  0  0  0  0  0  0  0  0  0
    6.7970   -2.2737   26.5735 C   0  0  0  0  0  0  0  0  0  0  0  0
    5.5898   -1.5074   26.1202 C   0  0  0  0  0  0  0  0  0  0  0  0
    9.3143   -2.5196   25.7085 C   0  0  0  0  0  0  0  0  0  0  0  0
    9.5578   -3.8500   26.3569 C   0  0  0  0  0  0  0  0  0  0  0  0
   10.9502   -4.4023   26.4357 N   0  0  0  0  0  0  0  0  0  0  0  0
   12.0990   -3.6240   25.8661 C   0  0  0  0  0  0  0  0  0  0  0  0
   11.8555   -2.2935   25.2177 C   0  0  0  0  0  0  0  0  0  0  0  0
   13.0044   -1.5153   24.6481 C   0  0  0  0  0  0  0  0  0  0  0  0
   12.7608   -0.1848   23.9997 C   0  0  0  0  0  0  0  0  0  0  0  0
   11.3684    0.3674   23.9209 C   0  0  0  0  0  0  0  0  0  0  0  0
   10.2196   -0.4108   24.4904 C   0  0  0  0  0  0  0  0  0  0  0  0
   10.4631   -1.7412   25.1388 C   0  0  0  0  0  0  0  0  0  0  0  0
    6.1091    1.6141   21.6950 C   0  0  0  0  0  0  0  0  0  0  0  0
    5.9093    1.0267   20.3293 C   0  0  0  0  0  0  0  0  0  0  0  0
    4.7579    1.4775   19.4802 C   0  0  0  0  0  0  0  0  0  0  0  0
    4.5580    0.8902   18.1145 C   0  0  0  0  0  0  0  0  0  0  0  0
    5.5095   -0.1480   17.5979 N   0  0  0  0  0  0  0  0  0  0  0  0
    6.6609   -0.5988   18.4471 N   0  0  0  0  0  0  0  0  0  0  0  0
    6.8608   -0.0114   19.8128 C   0  0  0  0  0  0  0  0  0  0  0  0
    4.2407   -1.5191   26.7758 C   0  0  0  0  0  0  0  0  0  0  0  0
    3.6804   -2.8013   27.3162 N   0  0  0  0  0  0  0  0  0  0  0  0
    3.4435   -2.8720   28.2692 H   0  0  0  0  0  0  0  0  0  0  0  0
    3.4811   -3.9758   26.4048 C   0  0  0  0  0  0  0  0  0  0  0  0
    2.1631   -4.6915   26.3811 C   0  0  0  0  0  0  0  0  0  0  0  0
    1.9637   -5.8660   25.4697 C   0  0  0  0  0  0  0  0  0  0  0  0
    3.0824   -6.3248   24.5819 N   0  0  0  0  0  0  0  0  0  0  0  0
    4.4004   -5.6091   24.6057 C   0  0  0  0  0  0  0  0  0  0  0  0
    4.5998   -4.4347   25.5170 N   0  0  0  0  0  0  0  0  0  0  0  0
  1  2  2  0  0  0
  2  3  1  0  0  0
  3  4  2  0  0  0
  4  5  1  0  0  0
  5  6  2  0  0  0
  6  7  1  0  0  0
  6  8  1  0  0  0
  8  9  2  0  0  0
  9 10  1  0  0  0
 10 11  1  0  0  0
 11 12  1  0  0  0
 12 28  1  0  0  0
 28 29  1  0  0  0
 29 30  2  0  0  0
 30 31  1  0  0  0
 31 32  2  0  0  0
 32 33  1  0  0  0
 33 34  2  0  0  0
 10 13  1  0  0  0
 13 14  2  0  0  0
 13 15  1  0  0  0
 15 18  1  0  0  0
 18 19  2  0  0  0
 19 20  1  0  0  0
 20 21  2  0  0  0
 21 22  1  0  0  0
 22 23  2  0  0  0
 23 24  1  0  0  0
 24 25  2  0  0  0
 25 26  1  0  0  0
 26 27  2  0  0  0
 15 16  1  0  0  0
 16 17  1  0  0  0
 17 35  1  0  0  0
 35 36  1  0  0  0
 36 38  1  0  0  0
 38 39  2  0  0  0
 39 40  1  0  0  0
 40 41  2  0  0  0
 41 42  1  0  0  0
 42 43  2  0  0  0
 12  2  1  0  0  0
 34 29  1  0  0  0
 27 18  1  0  0  0
 43 38  1  0  0  0
  9  3  1  0  0  0
 17 10  1  0  0  0
 27 22  1  0  0  0
 36 37  1  0  0  0
M  END
> <minimizedAffinity>
-7.89712

> <CNNscore>
0.2075269669

> <CNNaffinity>
6.8761072159

> <CNN_VS>
1.4269776344

> <CNNaffinity_variance>
0.1936256588

$$$$



 43 49  0  0  0  0  0  0  0  0999 V2000
    6.8875    4.4375   22.3031 O   0  0  0  0  0  0  0  0  0  0  0  0
    7.0168    3.0572   22.8760 C   0  0  0  0  0  0  0  0  0  0  0  0
    8.3697    2.4219   23.0037 C   0  0  0  0  0  0  0  0  0  0  0  0
    9.5931    3.1668   22.5586 C   0  0  0  0  0  0  0  0  0  0  0  0
   10.9459    2.5314   22.6863 C   0  0  0  0  0  0  0  0  0  0  0  0
   11.0752    1.1512   23.2591 C   0  0  0  0  0  0  0  0  0  0  0  0
   12.5407    0.8316   23.2409 Cl  0  0  0  0  0  0  0  0  0  0  0  0
    9.8517    0.4062   23.7043 C   0  0  0  0  0  0  0  0  0  0  0  0
    8.4989    1.0416   23.5765 C   0  0  0  0  0  0  0  0  0  0  0  0
    7.2754    0.2967   24.0217 C   0  0  0  0  0  0  0  0  0  0  0  0
    5.9226    0.9320   23.8940 C   0  0  0  0  0  0  0  0  0  0  0  0
    5.7933    2.3123   23.3211 N   0  0  0  0  0  0  0  0  0  0  0  0
    6.1481   -0.5658   24.5067 C   0  0  0  0  0  0  0  0  0  0  0  0
    4.6935   -0.1995   24.5039 O   0  0  0  0  0  0  0  0  0  0  0  0
    6.7306   -1.8590   24.9948 N   0  0  0  0  0  0  0  0  0  0  0  0
    8.2180   -1.7957   24.8116 C   0  0  0  0  0  0  0  0  0  0  0  0
    8.5547   -0.4635   24.2101 C   0  0  0  0  0  0  0  0  0  0  0  0
    5.9609   -3.0128   25.5660 C   0  0  0  0  0  0  0  0  0  0  0  0
    5.0971   -2.8127   26.7758 C   0  0  0  0  0  0  0  0  0  0  0  0
    4.3274   -3.9665   27.3469 N   0  0  0  0  0  0  0  0  0  0  0  0
    4.4215   -5.3205   26.7082 C   0  0  0  0  0  0  0  0  0  0  0  0
    5.2854   -5.5206   25.4984 C   0  0  0  0  0  0  0  0  0  0  0  0
    5.3796   -6.8747   24.8597 C   0  0  0  0  0  0  0  0  0  0  0  0
    6.2435   -7.0747   23.6499 C   0  0  0  0  0  0  0  0  0  0  0  0
    7.0132   -5.9208   23.0788 C   0  0  0  0  0  0  0  0  0  0  0  0
    6.9190   -4.5669   23.7175 C   0  0  0  0  0  0  0  0  0  0  0  0
    6.0552   -4.3668   24.9272 C   0  0  0  0  0  0  0  0  0  0  0  0
    4.4405    2.9476   23.1934 C   0  0  0  0  0  0  0  0  0  0  0  0
    3.5901    2.6658   21.9904 C   0  0  0  0  0  0  0  0  0  0  0  0
    4.1039    2.9839   20.6175 C   0  0  0  0  0  0  0  0  0  0  0  0
    3.2535    2.7021   19.4145 C   0  0  0  0  0  0  0  0  0  0  0  0
    1.8892    2.1020   19.5843 N   0  0  0  0  0  0  0  0  0  0  0  0
    1.3754    1.7839   20.9571 N   0  0  0  0  0  0  0  0  0  0  0  0
    2.2259    2.0658   22.1602 C   0  0  0  0  0  0  0  0  0  0  0  0
    9.9294    0.0232   23.8589 C   0  0  0  0  0  0  0  0  0  0  0  0
   10.9988   -0.9584   23.4808 N   0  0  0  0  0  0  0  0  0  0  0  0
   11.2784   -1.0438   22.5407 H   0  0  0  0  0  0  0  0  0  0  0  0
   11.6421   -1.8097   24.5348 C   0  0  0  0  0  0  0  0  0  0  0  0
   10.9058   -2.9883   25.0995 C   0  0  0  0  0  0  0  0  0  0  0  0
   11.5492   -3.8397   26.1536 C   0  0  0  0  0  0  0  0  0  0  0  0
   12.9288   -3.5126   26.6431 N   0  0  0  0  0  0  0  0  0  0  0  0
   13.6651   -2.3340   26.0785 C   0  0  0  0  0  0  0  0  0  0  0  0
   13.0218   -1.4826   25.0244 N   0  0  0  0  0  0  0  0  0  0  0  0
  1  2  2  0  0  0
  2  3  1  0  0  0
  3  4  2  0  0  0
  4  5  1  0  0  0
  5  6  2  0  0  0
  6  7  1  0  0  0
  6  8  1  0  0  0
  8  9  2  0  0  0
  9 10  1  0  0  0
 10 11  1  0  0  0
 11 12  1  0  0  0
 12 28  1  0  0  0
 28 29  1  0  0  0
 29 30  2  0  0  0
 30 31  1  0  0  0
 31 32  2  0  0  0
 32 33  1  0  0  0
 33 34  2  0  0  0
 10 13  1  0  0  0
 13 14  2  0  0  0
 13 15  1  0  0  0
 15 18  1  0  0  0
 18 19  2  0  0  0
 19 20  1  0  0  0
 20 21  2  0  0  0
 21 22  1  0  0  0
 22 23  2  0  0  0
 23 24  1  0  0  0
 24 25  2  0  0  0
 25 26  1  0  0  0
 26 27  2  0  0  0
 15 16  1  0  0  0
 16 17  1  0  0  0
 17 35  1  0  0  0
 35 36  1  0  0  0
 36 38  1  0  0  0
 38 39  2  0  0  0
 39 40  1  0  0  0
 40 41  2  0  0  0
 41 42  1  0  0  0
 42 43  2  0  0  0
 12  2  1  0  0  0
 34 29  1  0  0  0
 27 18  1  0  0  0
 43 38  1  0  0  0
  9  3  1  0  0  0
 17 10  1  0  0  0
 27 22  1  0  0  0
 36 37  1  0  0  0
M  END
> <minimizedAffinity>
-8.54671

> <CNNscore>
0.2009583712

> <CNNaffinity>
6.8840951920

> <CNN_VS>
1.3834165335

> <CNNaffinity_variance>
0.3536131084

$$$$
