


 26 29  0  0  0  0  0  0  0  0999 V2000
    7.4902   -0.3729   21.9109 O   0  0  0  0  0  0  0  0  0  0  0  0
    6.6298   -1.6005   21.9624 C   0  0  0  0  0  0  0  0  0  0  0  0
    7.0262   -2.7585   22.8295 N   0  0  0  0  0  0  0  0  0  0  0  0
    6.1658   -3.9861   22.8810 C   0  0  0  0  0  0  0  0  0  0  0  0
    6.5623   -5.1440   23.7481 C   0  0  0  0  0  0  0  0  0  0  0  0
    7.8191   -5.0744   24.5639 C   0  0  0  0  0  0  0  0  0  0  0  0
    8.6796   -3.8467   24.5125 C   0  0  0  0  0  0  0  0  0  0  0  0
    8.2831   -2.6888   23.6453 C   0  0  0  0  0  0  0  0  0  0  0  0
    5.3729   -1.6702   21.1466 C   0  0  0  0  0  0  0  0  0  0  0  0
    5.1620   -0.7135   20.0108 C   0  0  0  0  0  0  0  0  0  0  0  0
    5.7043   -1.0341   18.6495 C   0  0  0  0  0  0  0  0  0  0  0  0
    5.4934   -0.0774   17.5137 N   0  0  0  0  0  0  0  0  0  0  0  0
    4.7402    1.2000   17.7390 C   0  0  0  0  0  0  0  0  0  0  0  0
    4.1978    1.5207   19.1003 C   0  0  0  0  0  0  0  0  0  0  0  0
    3.4446    2.7981   19.3257 C   0  0  0  0  0  0  0  0  0  0  0  0
    2.9023    3.1188   20.6869 C   0  0  0  0  0  0  0  0  0  0  0  0
    3.1132    2.1621   21.8228 C   0  0  0  0  0  0  0  0  0  0  0  0
    3.8664    0.8847   21.5974 C   0  0  0  0  0  0  0  0  0  0  0  0
    4.4087    0.5640   20.2362 C   0  0  0  0  0  0  0  0  0  0  0  0
    9.1435   -1.4612   23.5938 C   0  0  0  0  0  0  0  0  0  0  0  0
   10.5578   -1.5152   24.0905 C   0  0  0  0  0  0  0  0  0  0  0  0
   11.6842   -1.7343   23.1244 C   0  0  0  0  0  0  0  0  0  0  0  0
   13.0985   -1.7884   23.6211 C   0  0  0  0  0  0  0  0  0  0  0  0
   13.3866   -1.6234   25.0839 C   0  0  0  0  0  0  0  0  0  0  0  0
   12.2602   -1.4044   26.0500 C   0  0  0  0  0  0  0  0  0  0  0  0
   10.8459   -1.3503   25.5534 C   0  0  0  0  0  0  0  0  0  0  0  0
  1  2  2  0  0  0
  2  9  1  0  0  0
  9 10  1  0  0  0
 10 11  2  0  0  0
 11 12  1  0  0  0
 12 13  2  0  0  0
 13 14  1  0  0  0
 14 15  2  0  0  0
 15 16  1  0  0  0
 16 17  2  0  0  0
 17 18  1  0  0  0
 18 19  2  0  0  0
  2  3  1  0  0  0
  3  4  1  0  0  0
  4  5  1  0  0  0
  5  6  1  0  0  0
  6  7  1  0  0  0
  7  8  1  0  0  0
  8 20  1  0  0  0
 20 21  1  0  0  0
 21 22  2  0  0  0
 22 23  1  0  0  0
 23 24  2  0  0  0
 24 25  1  0  0  0
 25 26  2  0  0  0
 19 10  1  0  0  0
  8  3  1  0  0  0
 26 21  1  0  0  0
 19 14  1  0  0  0
M  END
> <minimizedAffinity>
-7.92107

> <CNNscore>
0.8011630774

> <CNNaffinity>
6.0003666878

> <CNN_VS>
4.8072724342

> <CNNaffinity_variance>
0.1367543787

$$$$



 26 29  0  0  0  0  0  0  0  0999 V2000
    8.6067   -2.1360   22.3806 O   0  0  0  0  0  0  0  0  0  0  0  0
    8.1382   -0.7109   22.3818 C   0  0  0  0  0  0  0  0  0  0  0  0
    9.1135    0.3989   22.6407 N   0  0  0  0  0  0  0  0  0  0  0  0
    8.6451    1.8239   22.6419 C   0  0  0  0  0  0  0  0  0  0  0  0
    9.6204    2.9337   22.9008 C   0  0  0  0  0  0  0  0  0  0  0  0
   11.0640    2.6186   23.1585 C   0  0  0  0  0  0  0  0  0  0  0  0
   11.5325    1.1936   23.1573 C   0  0  0  0  0  0  0  0  0  0  0  0
   10.5572    0.0838   22.8984 C   0  0  0  0  0  0  0  0  0  0  0  0
    6.6945   -0.3958   22.1241 C   0  0  0  0  0  0  0  0  0  0  0  0
    6.2502    0.0164   20.7520 C   0  0  0  0  0  0  0  0  0  0  0  0
    7.0949   -0.3173   19.5583 C   0  0  0  0  0  0  0  0  0  0  0  0
    6.6505    0.0949   18.1862 N   0  0  0  0  0  0  0  0  0  0  0  0
    5.3614    0.8407   18.0078 C   0  0  0  0  0  0  0  0  0  0  0  0
    4.5166    1.1744   19.2016 C   0  0  0  0  0  0  0  0  0  0  0  0
    3.2275    1.9202   19.0232 C   0  0  0  0  0  0  0  0  0  0  0  0
    2.3827    2.2539   20.2169 C   0  0  0  0  0  0  0  0  0  0  0  0
    2.8271    1.8417   21.5890 C   0  0  0  0  0  0  0  0  0  0  0  0
    4.1162    1.0959   21.7674 C   0  0  0  0  0  0  0  0  0  0  0  0
    4.9610    0.7622   20.5737 C   0  0  0  0  0  0  0  0  0  0  0  0
   11.0256   -1.3412   22.8972 C   0  0  0  0  0  0  0  0  0  0  0  0
   11.6611   -1.9228   24.1252 C   0  0  0  0  0  0  0  0  0  0  0  0
   13.0664   -1.5477   24.4917 C   0  0  0  0  0  0  0  0  0  0  0  0
   13.7019   -2.1293   25.7197 C   0  0  0  0  0  0  0  0  0  0  0  0
   12.9320   -3.0860   26.5811 C   0  0  0  0  0  0  0  0  0  0  0  0
   11.5267   -3.4610   26.2146 C   0  0  0  0  0  0  0  0  0  0  0  0
   10.8912   -2.8795   24.9867 C   0  0  0  0  0  0  0  0  0  0  0  0
  1  2  2  0  0  0
  2  9  1  0  0  0
  9 10  1  0  0  0
 10 11  2  0  0  0
 11 12  1  0  0  0
 12 13  2  0  0  0
 13 14  1  0  0  0
 14 15  2  0  0  0
 15 16  1  0  0  0
 16 17  2  0  0  0
 17 18  1  0  0  0
 18 19  2  0  0  0
  2  3  1  0  0  0
  3  4  1  0  0  0
  4  5  1  0  0  0
  5  6  1  0  0  0
  6  7  1  0  0  0
  7  8  1  0  0  0
  8 20  1  0  0  0
 20 21  1  0  0  0
 21 22  2  0  0  0
 22 23  1  0  0  0
 23 24  2  0  0  0
 24 25  1  0  0  0
 25 26  2  0  0  0
 19 10  1  0  0  0
  8  3  1  0  0  0
 26 21  1  0  0  0
 19 14  1  0  0  0
M  END
> <minimizedAffinity>
-8.77736

> <CNNscore>
0.7403123975

> <CNNaffinity>
6.1998543739

> <CNN_VS>
4.5898289680

> <CNNaffinity_variance>
0.0245489813

$$$$



 26 29  0  0  0  0  0  0  0  0999 V2000
    8.5609   -2.1716   22.4149 O   0  0  0  0  0  0  0  0  0  0  0  0
    8.1109   -0.7407   22.3996 C   0  0  0  0  0  0  0  0  0  0  0  0
    9.1005    0.3593   22.6455 N   0  0  0  0  0  0  0  0  0  0  0  0
    8.6506    1.7902   22.6301 C   0  0  0  0  0  0  0  0  0  0  0  0
    9.6402    2.8903   22.8760 C   0  0  0  0  0  0  0  0  0  0  0  0
   11.0797    2.5595   23.1372 C   0  0  0  0  0  0  0  0  0  0  0  0
   11.5297    1.1287   23.1526 C   0  0  0  0  0  0  0  0  0  0  0  0
   10.5401    0.0286   22.9067 C   0  0  0  0  0  0  0  0  0  0  0  0
    6.6713   -0.4100   22.1383 C   0  0  0  0  0  0  0  0  0  0  0  0
    6.2353    0.0098   20.7659 C   0  0  0  0  0  0  0  0  0  0  0  0
    7.0891   -0.3141   19.5759 C   0  0  0  0  0  0  0  0  0  0  0  0
    6.6531    0.1057   18.2034 N   0  0  0  0  0  0  0  0  0  0  0  0
    5.3633    0.8494   18.0210 C   0  0  0  0  0  0  0  0  0  0  0  0
    4.5095    1.1734   19.2110 C   0  0  0  0  0  0  0  0  0  0  0  0
    3.2197    1.9171   19.0285 C   0  0  0  0  0  0  0  0  0  0  0  0
    2.3659    2.2409   20.2185 C   0  0  0  0  0  0  0  0  0  0  0  0
    2.8019    1.8211   21.5910 C   0  0  0  0  0  0  0  0  0  0  0  0
    4.0917    1.0774   21.7734 C   0  0  0  0  0  0  0  0  0  0  0  0
    4.9455    0.7535   20.5834 C   0  0  0  0  0  0  0  0  0  0  0  0
   10.9900   -1.4022   22.9220 C   0  0  0  0  0  0  0  0  0  0  0  0
   11.6432   -1.9699   24.1472 C   0  0  0  0  0  0  0  0  0  0  0  0
   10.8860   -2.9172   25.0301 C   0  0  0  0  0  0  0  0  0  0  0  0
   11.5392   -3.4849   26.2553 C   0  0  0  0  0  0  0  0  0  0  0  0
   12.9494   -3.1054   26.5976 C   0  0  0  0  0  0  0  0  0  0  0  0
   13.7066   -2.1581   25.7147 C   0  0  0  0  0  0  0  0  0  0  0  0
   13.0534   -1.5904   24.4895 C   0  0  0  0  0  0  0  0  0  0  0  0
  1  2  2  0  0  0
  2  9  1  0  0  0
  9 10  1  0  0  0
 10 11  2  0  0  0
 11 12  1  0  0  0
 12 13  2  0  0  0
 13 14  1  0  0  0
 14 15  2  0  0  0
 15 16  1  0  0  0
 16 17  2  0  0  0
 17 18  1  0  0  0
 18 19  2  0  0  0
  2  3  1  0  0  0
  3  4  1  0  0  0
  4  5  1  0  0  0
  5  6  1  0  0  0
  6  7  1  0  0  0
  7  8  1  0  0  0
  8 20  1  0  0  0
 20 21  1  0  0  0
 21 22  2  0  0  0
 22 23  1  0  0  0
 23 24  2  0  0  0
 24 25  1  0  0  0
 25 26  2  0  0  0
 19 10  1  0  0  0
  8  3  1  0  0  0
 26 21  1  0  0  0
 19 14  1  0  0  0
M  END
> <minimizedAffinity>
-8.77463

> <CNNscore>
0.7387630939

> <CNNaffinity>
6.1964488029

> <CNN_VS>
4.5777077675

> <CNNaffinity_variance>
0.0223564319

$$$$



 26 29  0  0  0  0  0  0  0  0999 V2000
    8.4651   -0.1205   22.5198 O   0  0  0  0  0  0  0  0  0  0  0  0
    7.1766   -0.8621   22.7199 C   0  0  0  0  0  0  0  0  0  0  0  0
    7.1854   -2.2257   23.3447 N   0  0  0  0  0  0  0  0  0  0  0  0
    5.8970   -2.9673   23.5448 C   0  0  0  0  0  0  0  0  0  0  0  0
    5.9058   -4.3310   24.1697 C   0  0  0  0  0  0  0  0  0  0  0  0
    7.2030   -4.9530   24.5945 C   0  0  0  0  0  0  0  0  0  0  0  0
    8.4914   -4.2113   24.3944 C   0  0  0  0  0  0  0  0  0  0  0  0
    8.4826   -2.8477   23.7695 C   0  0  0  0  0  0  0  0  0  0  0  0
    5.8795   -0.2401   22.2951 C   0  0  0  0  0  0  0  0  0  0  0  0
    5.6456    0.0954   20.8519 C   0  0  0  0  0  0  0  0  0  0  0  0
    6.5592   -0.4540   19.7967 C   0  0  0  0  0  0  0  0  0  0  0  0
    6.3254   -0.1185   18.3535 N   0  0  0  0  0  0  0  0  0  0  0  0
    5.1780    0.7663   17.9655 C   0  0  0  0  0  0  0  0  0  0  0  0
    4.2643    1.3157   19.0208 C   0  0  0  0  0  0  0  0  0  0  0  0
    3.1169    2.2004   18.6328 C   0  0  0  0  0  0  0  0  0  0  0  0
    2.2033    2.7498   19.6881 C   0  0  0  0  0  0  0  0  0  0  0  0
    2.4372    2.4143   21.1313 C   0  0  0  0  0  0  0  0  0  0  0  0
    3.5846    1.5295   21.5192 C   0  0  0  0  0  0  0  0  0  0  0  0
    4.4981    0.9802   20.4640 C   0  0  0  0  0  0  0  0  0  0  0  0
    9.7710   -2.1061   23.5694 C   0  0  0  0  0  0  0  0  0  0  0  0
   10.9351   -2.3661   24.4790 C   0  0  0  0  0  0  0  0  0  0  0  0
   10.7558   -3.2150   25.7026 C   0  0  0  0  0  0  0  0  0  0  0  0
   11.9200   -3.4750   26.6122 C   0  0  0  0  0  0  0  0  0  0  0  0
   13.2633   -2.8861   26.2981 C   0  0  0  0  0  0  0  0  0  0  0  0
   13.4425   -2.0373   25.0744 C   0  0  0  0  0  0  0  0  0  0  0  0
   12.2785   -1.7773   24.1649 C   0  0  0  0  0  0  0  0  0  0  0  0
  1  2  2  0  0  0
  2  9  1  0  0  0
  9 10  1  0  0  0
 10 11  2  0  0  0
 11 12  1  0  0  0
 12 13  2  0  0  0
 13 14  1  0  0  0
 14 15  2  0  0  0
 15 16  1  0  0  0
 16 17  2  0  0  0
 17 18  1  0  0  0
 18 19  2  0  0  0
  2  3  1  0  0  0
  3  4  1  0  0  0
  4  5  1  0  0  0
  5  6  1  0  0  0
  6  7  1  0  0  0
  7  8  1  0  0  0
  8 20  1  0  0  0
 20 21  1  0  0  0
 21 22  2  0  0  0
 22 23  1  0  0  0
 23 24  2  0  0  0
 24 25  1  0  0  0
 25 26  2  0  0  0
 19 10  1  0  0  0
  8  3  1  0  0  0
 26 21  1  0  0  0
 19 14  1  0  0  0
M  END
> <minimizedAffinity>
-7.78019

> <CNNscore>
0.7347778678

> <CNNaffinity>
6.0266008377

> <CNN_VS>
4.4282131195

> <CNNaffinity_variance>
0.0636992976

$$$$



 26 29  0  0  0  0  0  0  0  0999 V2000
    7.1919    0.1337   22.3391 O   0  0  0  0  0  0  0  0  0  0  0  0
    6.6123   -1.2481   22.2697 C   0  0  0  0  0  0  0  0  0  0  0  0
    7.1936   -2.3481   23.1076 N   0  0  0  0  0  0  0  0  0  0  0  0
    6.6141   -3.7299   23.0382 C   0  0  0  0  0  0  0  0  0  0  0  0
    7.1953   -4.8299   23.8762 C   0  0  0  0  0  0  0  0  0  0  0  0
    8.3560   -4.5482   24.7835 C   0  0  0  0  0  0  0  0  0  0  0  0
    8.9356   -3.1663   24.8529 C   0  0  0  0  0  0  0  0  0  0  0  0
    8.3543   -2.0663   24.0150 C   0  0  0  0  0  0  0  0  0  0  0  0
    5.4516   -1.5299   21.3623 C   0  0  0  0  0  0  0  0  0  0  0  0
    5.2185   -0.6720   20.1542 C   0  0  0  0  0  0  0  0  0  0  0  0
    5.8190   -1.0561   18.8344 C   0  0  0  0  0  0  0  0  0  0  0  0
    5.5859   -0.1982   17.6263 N   0  0  0  0  0  0  0  0  0  0  0  0
    4.7524    1.0439   17.7379 C   0  0  0  0  0  0  0  0  0  0  0  0
    4.1519    1.4281   19.0577 C   0  0  0  0  0  0  0  0  0  0  0  0
    3.3183    2.6701   19.1693 C   0  0  0  0  0  0  0  0  0  0  0  0
    2.7179    3.0542   20.4891 C   0  0  0  0  0  0  0  0  0  0  0  0
    2.9510    2.1963   21.6973 C   0  0  0  0  0  0  0  0  0  0  0  0
    3.7845    0.9543   21.5857 C   0  0  0  0  0  0  0  0  0  0  0  0
    4.3849    0.5701   20.2659 C   0  0  0  0  0  0  0  0  0  0  0  0
    8.9338   -0.6845   24.0844 C   0  0  0  0  0  0  0  0  0  0  0  0
   10.3075   -0.4194   23.5435 C   0  0  0  0  0  0  0  0  0  0  0  0
   10.8391    0.9826   23.5010 C   0  0  0  0  0  0  0  0  0  0  0  0
   12.2129    1.2478   22.9601 C   0  0  0  0  0  0  0  0  0  0  0  0
   13.0550    0.1109   22.4617 C   0  0  0  0  0  0  0  0  0  0  0  0
   12.5234   -1.2911   22.5042 C   0  0  0  0  0  0  0  0  0  0  0  0
   11.1497   -1.5562   23.0451 C   0  0  0  0  0  0  0  0  0  0  0  0
  1  2  2  0  0  0
  2  9  1  0  0  0
  9 10  1  0  0  0
 10 11  2  0  0  0
 11 12  1  0  0  0
 12 13  2  0  0  0
 13 14  1  0  0  0
 14 15  2  0  0  0
 15 16  1  0  0  0
 16 17  2  0  0  0
 17 18  1  0  0  0
 18 19  2  0  0  0
  2  3  1  0  0  0
  3  4  1  0  0  0
  4  5  1  0  0  0
  5  6  1  0  0  0
  6  7  1  0  0  0
  7  8  1  0  0  0
  8 20  1  0  0  0
 20 21  1  0  0  0
 21 22  2  0  0  0
 22 23  1  0  0  0
 23 24  2  0  0  0
 24 25  1  0  0  0
 25 26  2  0  0  0
 19 10  1  0  0  0
  8  3  1  0  0  0
 26 21  1  0  0  0
 19 14  1  0  0  0
M  END
> <minimizedAffinity>
-7.78694

> <CNNscore>
0.7251513004

> <CNNaffinity>
5.9675869942

> <CNN_VS>
4.3274035454

> <CNNaffinity_variance>
0.0958415568

$$$$



 26 29  0  0  0  0  0  0  0  0999 V2000
    9.6947   -0.1753   21.8945 O   0  0  0  0  0  0  0  0  0  0  0  0
    8.2453   -0.1518   22.2801 C   0  0  0  0  0  0  0  0  0  0  0  0
    7.6849   -1.2318   23.1573 N   0  0  0  0  0  0  0  0  0  0  0  0
    6.2355   -1.2083   23.5429 C   0  0  0  0  0  0  0  0  0  0  0  0
    5.6752   -2.2884   24.4200 C   0  0  0  0  0  0  0  0  0  0  0  0
    6.5642   -3.3920   24.9116 C   0  0  0  0  0  0  0  0  0  0  0  0
    8.0136   -3.4155   24.5260 C   0  0  0  0  0  0  0  0  0  0  0  0
    8.5740   -2.3355   23.6488 C   0  0  0  0  0  0  0  0  0  0  0  0
    7.3563    0.9518   21.7885 C   0  0  0  0  0  0  0  0  0  0  0  0
    6.5679    0.7733   20.5249 C   0  0  0  0  0  0  0  0  0  0  0  0
    7.0240   -0.2110   19.4891 C   0  0  0  0  0  0  0  0  0  0  0  0
    6.2356   -0.3895   18.2255 N   0  0  0  0  0  0  0  0  0  0  0  0
    4.9911    0.4163   17.9978 C   0  0  0  0  0  0  0  0  0  0  0  0
    4.5349    1.4006   19.0337 C   0  0  0  0  0  0  0  0  0  0  0  0
    3.2904    2.2064   18.8060 C   0  0  0  0  0  0  0  0  0  0  0  0
    2.8343    3.1907   19.8419 C   0  0  0  0  0  0  0  0  0  0  0  0
    3.6227    3.3693   21.1054 C   0  0  0  0  0  0  0  0  0  0  0  0
    4.8672    2.5635   21.3331 C   0  0  0  0  0  0  0  0  0  0  0  0
    5.3233    1.5792   20.2973 C   0  0  0  0  0  0  0  0  0  0  0  0
   10.0234   -2.3590   23.2632 C   0  0  0  0  0  0  0  0  0  0  0  0
   11.0800   -2.4546   24.3235 C   0  0  0  0  0  0  0  0  0  0  0  0
   12.2952   -1.5780   24.2526 C   0  0  0  0  0  0  0  0  0  0  0  0
   13.3519   -1.6737   25.3130 C   0  0  0  0  0  0  0  0  0  0  0  0
   13.1934   -2.6458   26.4442 C   0  0  0  0  0  0  0  0  0  0  0  0
   11.9782   -3.5224   26.5151 C   0  0  0  0  0  0  0  0  0  0  0  0
   10.9216   -3.4268   25.4548 C   0  0  0  0  0  0  0  0  0  0  0  0
  1  2  2  0  0  0
  2  9  1  0  0  0
  9 10  1  0  0  0
 10 11  2  0  0  0
 11 12  1  0  0  0
 12 13  2  0  0  0
 13 14  1  0  0  0
 14 15  2  0  0  0
 15 16  1  0  0  0
 16 17  2  0  0  0
 17 18  1  0  0  0
 18 19  2  0  0  0
  2  3  1  0  0  0
  3  4  1  0  0  0
  4  5  1  0  0  0
  5  6  1  0  0  0
  6  7  1  0  0  0
  7  8  1  0  0  0
  8 20  1  0  0  0
 20 21  1  0  0  0
 21 22  2  0  0  0
 22 23  1  0  0  0
 23 24  2  0  0  0
 24 25  1  0  0  0
 25 26  2  0  0  0
 19 10  1  0  0  0
  8  3  1  0  0  0
 26 21  1  0  0  0
 19 14  1  0  0  0
M  END
> <minimizedAffinity>
-8.10540

> <CNNscore>
0.6676047444

> <CNNaffinity>
5.9640631676

> <CNN_VS>
3.9816367626

> <CNNaffinity_variance>
0.1022162661

$$$$



 26 29  0  0  0  0  0  0  0  0999 V2000
    7.9336   -1.8120   25.1028 O   0  0  0  0  0  0  0  0  0  0  0  0
    8.2241   -3.2824   25.0417 C   0  0  0  0  0  0  0  0  0  0  0  0
    7.4011   -4.1733   24.1591 N   0  0  0  0  0  0  0  0  0  0  0  0
    7.6915   -5.6437   24.0980 C   0  0  0  0  0  0  0  0  0  0  0  0
    6.8686   -6.5346   23.2154 C   0  0  0  0  0  0  0  0  0  0  0  0
    5.7553   -5.9553   22.3940 C   0  0  0  0  0  0  0  0  0  0  0  0
    5.4648   -4.4849   22.4551 C   0  0  0  0  0  0  0  0  0  0  0  0
    6.2878   -3.5939   23.3377 C   0  0  0  0  0  0  0  0  0  0  0  0
    9.3374   -3.8617   25.8631 C   0  0  0  0  0  0  0  0  0  0  0  0
   10.7291   -3.3180   25.7300 C   0  0  0  0  0  0  0  0  0  0  0  0
   11.7215   -3.5179   26.8368 C   0  0  0  0  0  0  0  0  0  0  0  0
   13.1131   -2.9742   26.7036 N   0  0  0  0  0  0  0  0  0  0  0  0
   13.5123   -2.2306   25.4637 C   0  0  0  0  0  0  0  0  0  0  0  0
   12.5199   -2.0306   24.3568 C   0  0  0  0  0  0  0  0  0  0  0  0
   12.9191   -1.2869   23.1168 C   0  0  0  0  0  0  0  0  0  0  0  0
   11.9267   -1.0869   22.0100 C   0  0  0  0  0  0  0  0  0  0  0  0
   10.5351   -1.6306   22.1432 C   0  0  0  0  0  0  0  0  0  0  0  0
   10.1358   -2.3743   23.3831 C   0  0  0  0  0  0  0  0  0  0  0  0
   11.1283   -2.5743   24.4899 C   0  0  0  0  0  0  0  0  0  0  0  0
    5.9974   -2.1236   23.3988 C   0  0  0  0  0  0  0  0  0  0  0  0
    6.1838   -1.2710   22.1789 C   0  0  0  0  0  0  0  0  0  0  0  0
    7.2234   -0.1897   22.1713 C   0  0  0  0  0  0  0  0  0  0  0  0
    7.4098    0.6629   20.9513 C   0  0  0  0  0  0  0  0  0  0  0  0
    6.5566    0.4343   19.7389 C   0  0  0  0  0  0  0  0  0  0  0  0
    5.5170   -0.6470   19.7466 C   0  0  0  0  0  0  0  0  0  0  0  0
    5.3306   -1.4996   20.9665 C   0  0  0  0  0  0  0  0  0  0  0  0
  1  2  2  0  0  0
  2  9  1  0  0  0
  9 10  1  0  0  0
 10 11  2  0  0  0
 11 12  1  0  0  0
 12 13  2  0  0  0
 13 14  1  0  0  0
 14 15  2  0  0  0
 15 16  1  0  0  0
 16 17  2  0  0  0
 17 18  1  0  0  0
 18 19  2  0  0  0
  2  3  1  0  0  0
  3  4  1  0  0  0
  4  5  1  0  0  0
  5  6  1  0  0  0
  6  7  1  0  0  0
  7  8  1  0  0  0
  8 20  1  0  0  0
 20 21  1  0  0  0
 21 22  2  0  0  0
 22 23  1  0  0  0
 23 24  2  0  0  0
 24 25  1  0  0  0
 25 26  2  0  0  0
 19 10  1  0  0  0
  8  3  1  0  0  0
 26 21  1  0  0  0
 19 14  1  0  0  0
M  END
> <minimizedAffinity>
-7.79927

> <CNNscore>
0.5859128237

> <CNNaffinity>
6.0574235916

> <CNN_VS>
3.5491220951

> <CNNaffinity_variance>
0.2961129248

$$$$



 26 29  0  0  0  0  0  0  0  0999 V2000
    9.0489   -2.5942   23.2710 O   0  0  0  0  0  0  0  0  0  0  0  0
    9.6726   -3.2299   24.4781 C   0  0  0  0  0  0  0  0  0  0  0  0
   11.0462   -2.8175   24.9176 N   0  0  0  0  0  0  0  0  0  0  0  0
   11.6698   -3.4532   26.1246 C   0  0  0  0  0  0  0  0  0  0  0  0
   13.0434   -3.0409   26.5641 C   0  0  0  0  0  0  0  0  0  0  0  0
   13.7934   -1.9928   25.7966 C   0  0  0  0  0  0  0  0  0  0  0  0
   13.1697   -1.3570   24.5895 C   0  0  0  0  0  0  0  0  0  0  0  0
   11.7961   -1.7694   24.1500 C   0  0  0  0  0  0  0  0  0  0  0  0
    8.9226   -4.2780   25.2455 C   0  0  0  0  0  0  0  0  0  0  0  0
    7.4311   -4.1881   25.3767 C   0  0  0  0  0  0  0  0  0  0  0  0
    6.8230   -3.3866   26.4893 C   0  0  0  0  0  0  0  0  0  0  0  0
    5.3314   -3.2967   26.6204 N   0  0  0  0  0  0  0  0  0  0  0  0
    4.4480   -4.0082   25.6390 C   0  0  0  0  0  0  0  0  0  0  0  0
    5.0561   -4.8097   24.5264 C   0  0  0  0  0  0  0  0  0  0  0  0
    4.1726   -5.5212   23.5450 C   0  0  0  0  0  0  0  0  0  0  0  0
    4.7807   -6.3227   22.4324 C   0  0  0  0  0  0  0  0  0  0  0  0
    6.2723   -6.4126   22.3013 C   0  0  0  0  0  0  0  0  0  0  0  0
    7.1557   -5.7011   23.2827 C   0  0  0  0  0  0  0  0  0  0  0  0
    6.5476   -4.8996   24.3952 C   0  0  0  0  0  0  0  0  0  0  0  0
   11.1725   -1.1337   22.9430 C   0  0  0  0  0  0  0  0  0  0  0  0
   10.9116    0.3433   22.9237 C   0  0  0  0  0  0  0  0  0  0  0  0
    9.5025    0.8565   22.9546 C   0  0  0  0  0  0  0  0  0  0  0  0
    9.2416    2.3335   22.9353 C   0  0  0  0  0  0  0  0  0  0  0  0
   10.3899    3.2973   22.8851 C   0  0  0  0  0  0  0  0  0  0  0  0
   11.7990    2.7841   22.8542 C   0  0  0  0  0  0  0  0  0  0  0  0
   12.0599    1.3071   22.8735 C   0  0  0  0  0  0  0  0  0  0  0  0
  1  2  2  0  0  0
  2  9  1  0  0  0
  9 10  1  0  0  0
 10 11  2  0  0  0
 11 12  1  0  0  0
 12 13  2  0  0  0
 13 14  1  0  0  0
 14 15  2  0  0  0
 15 16  1  0  0  0
 16 17  2  0  0  0
 17 18  1  0  0  0
 18 19  2  0  0  0
  2  3  1  0  0  0
  3  4  1  0  0  0
  4  5  1  0  0  0
  5  6  1  0  0  0
  6  7  1  0  0  0
  7  8  1  0  0  0
  8 20  1  0  0  0
 20 21  1  0  0  0
 21 22  2  0  0  0
 22 23  1  0  0  0
 23 24  2  0  0  0
 24 25  1  0  0  0
 25 26  2  0  0  0
 19 10  1  0  0  0
  8  3  1  0  0  0
 26 21  1  0  0  0
 19 14  1  0  0  0
M  END
> <minimizedAffinity>
-7.59214

> <CNNscore>
0.5469670892

> <CNNaffinity>
6.0270404816

> <CNN_VS>
3.2965927124

> <CNNaffinity_variance>
0.0528076775

$$$$



 26 29  0  0  0  0  0  0  0  0999 V2000
    9.0413   -2.4614   22.9502 O   0  0  0  0  0  0  0  0  0  0  0  0
    9.5415   -3.1219   24.2007 C   0  0  0  0  0  0  0  0  0  0  0  0
   10.9015   -2.7832   24.7351 N   0  0  0  0  0  0  0  0  0  0  0  0
   11.4018   -3.4436   25.9856 C   0  0  0  0  0  0  0  0  0  0  0  0
   12.7618   -3.1049   26.5200 C   0  0  0  0  0  0  0  0  0  0  0  0
   13.6216   -2.1059   25.8040 C   0  0  0  0  0  0  0  0  0  0  0  0
   13.1214   -1.4455   24.5535 C   0  0  0  0  0  0  0  0  0  0  0  0
   11.7613   -1.7841   24.0191 C   0  0  0  0  0  0  0  0  0  0  0  0
    8.6817   -4.1209   24.9167 C   0  0  0  0  0  0  0  0  0  0  0  0
    7.2547   -3.7886   25.2381 C   0  0  0  0  0  0  0  0  0  0  0  0
    6.2012   -4.8535   25.1617 C   0  0  0  0  0  0  0  0  0  0  0  0
    4.7742   -4.5212   25.4831 N   0  0  0  0  0  0  0  0  0  0  0  0
    4.4008   -3.1239   25.8808 C   0  0  0  0  0  0  0  0  0  0  0  0
    5.4544   -2.0589   25.9571 C   0  0  0  0  0  0  0  0  0  0  0  0
    5.0809   -0.6617   26.3548 C   0  0  0  0  0  0  0  0  0  0  0  0
    6.1345    0.4033   26.4312 C   0  0  0  0  0  0  0  0  0  0  0  0
    7.5615    0.0709   26.1098 C   0  0  0  0  0  0  0  0  0  0  0  0
    7.9349   -1.3263   25.7121 C   0  0  0  0  0  0  0  0  0  0  0  0
    6.8813   -2.3912   25.6358 C   0  0  0  0  0  0  0  0  0  0  0  0
   11.2611   -1.1238   22.7687 C   0  0  0  0  0  0  0  0  0  0  0  0
   10.9317    0.3396   22.7736 C   0  0  0  0  0  0  0  0  0  0  0  0
   12.0173    1.3520   22.9891 C   0  0  0  0  0  0  0  0  0  0  0  0
   11.6879    2.8154   22.9941 C   0  0  0  0  0  0  0  0  0  0  0  0
   10.2729    3.2663   22.7836 C   0  0  0  0  0  0  0  0  0  0  0  0
    9.1872    2.2539   22.5680 C   0  0  0  0  0  0  0  0  0  0  0  0
    9.5166    0.7906   22.5631 C   0  0  0  0  0  0  0  0  0  0  0  0
  1  2  2  0  0  0
  2  9  1  0  0  0
  9 10  1  0  0  0
 10 11  2  0  0  0
 11 12  1  0  0  0
 12 13  2  0  0  0
 13 14  1  0  0  0
 14 15  2  0  0  0
 15 16  1  0  0  0
 16 17  2  0  0  0
 17 18  1  0  0  0
 18 19  2  0  0  0
  2  3  1  0  0  0
  3  4  1  0  0  0
  4  5  1  0  0  0
  5  6  1  0  0  0
  6  7  1  0  0  0
  7  8  1  0  0  0
  8 20  1  0  0  0
 20 21  1  0  0  0
 21 22  2  0  0  0
 22 23  1  0  0  0
 23 24  2  0  0  0
 24 25  1  0  0  0
 25 26  2  0  0  0
 19 10  1  0  0  0
  8  3  1  0  0  0
 26 21  1  0  0  0
 19 14  1  0  0  0
M  END
> <minimizedAffinity>
-7.23408

> <CNNscore>
0.5405094624

> <CNNaffinity>
5.8668336868

> <CNN_VS>
3.1710791588

> <CNNaffinity_variance>
0.0900593400

$$$$
