


 26 29  0  0  0  0  0  0  0  0999 V2000
   -7.9343   -0.8970  -22.1974 O   0  0  0  0  0  0  0  0  0  0  0  0
   -7.2581   -2.2322  -22.2995 C   0  0  0  0  0  0  0  0  0  0  0  0
   -7.7950   -3.2752  -23.2342 N   0  0  0  0  0  0  0  0  0  0  0  0
   -7.1189   -4.6103  -23.3363 C   0  0  0  0  0  0  0  0  0  0  0  0
   -7.6558   -5.6534  -24.2711 C   0  0  0  0  0  0  0  0  0  0  0  0
   -8.8687   -5.3614  -25.1038 C   0  0  0  0  0  0  0  0  0  0  0  0
   -9.5449   -4.0262  -25.0017 C   0  0  0  0  0  0  0  0  0  0  0  0
   -9.0080   -2.9832  -24.0670 C   0  0  0  0  0  0  0  0  0  0  0  0
   -6.0452   -2.5242  -21.4668 C   0  0  0  0  0  0  0  0  0  0  0  0
   -5.6482   -1.5866  -20.3653 C   0  0  0  0  0  0  0  0  0  0  0  0
   -6.1539   -1.8105  -18.9710 C   0  0  0  0  0  0  0  0  0  0  0  0
   -5.7569   -0.8729  -17.8695 N   0  0  0  0  0  0  0  0  0  0  0  0
   -4.8541    0.2886  -18.1623 C   0  0  0  0  0  0  0  0  0  0  0  0
   -4.3483    0.5126  -19.5566 C   0  0  0  0  0  0  0  0  0  0  0  0
   -3.4456    1.6742  -19.8494 C   0  0  0  0  0  0  0  0  0  0  0  0
   -2.9399    1.8982  -21.2437 C   0  0  0  0  0  0  0  0  0  0  0  0
   -3.3369    0.9606  -22.3451 C   0  0  0  0  0  0  0  0  0  0  0  0
   -4.2396   -0.2010  -22.0524 C   0  0  0  0  0  0  0  0  0  0  0  0
   -4.7454   -0.4250  -20.6581 C   0  0  0  0  0  0  0  0  0  0  0  0
   -9.6841   -1.6481  -23.9649 C   0  0  0  0  0  0  0  0  0  0  0  0
  -11.1158   -1.5641  -23.5254 C   0  0  0  0  0  0  0  0  0  0  0  0
  -11.7018   -2.6463  -22.6678 C   0  0  0  0  0  0  0  0  0  0  0  0
  -13.1335   -2.5623  -22.2283 C   0  0  0  0  0  0  0  0  0  0  0  0
  -13.9792   -1.3961  -22.6464 C   0  0  0  0  0  0  0  0  0  0  0  0
  -13.3932   -0.3140  -23.5040 C   0  0  0  0  0  0  0  0  0  0  0  0
  -11.9615   -0.3980  -23.9435 C   0  0  0  0  0  0  0  0  0  0  0  0
  1  2  2  0  0  0
  2  9  1  0  0  0
  9 10  1  0  0  0
 10 11  2  0  0  0
 11 12  1  0  0  0
 12 13  2  0  0  0
 13 14  1  0  0  0
 14 15  2  0  0  0
 15 16  1  0  0  0
 16 17  2  0  0  0
 17 18  1  0  0  0
 18 19  2  0  0  0
  2  3  1  0  0  0
  3  4  1  0  0  0
  4  5  1  0  0  0
  5  6  1  0  0  0
  6  7  1  0  0  0
  7  8  1  0  0  0
  8 20  1  0  0  0
 20 21  1  0  0  0
 21 22  2  0  0  0
 22 23  1  0  0  0
 23 24  2  0  0  0
 24 25  1  0  0  0
 25 26  2  0  0  0
 19 10  1  0  0  0
  8  3  1  0  0  0
 26 21  1  0  0  0
 19 14  1  0  0  0
M  END
> <minimizedAffinity>
-8.02720

> <CNNscore>
0.8986671567

> <CNNaffinity>
6.0683288574

> <CNN_VS>
5.4534077644

> <CNNaffinity_variance>
0.2143148184

$$$$



 26 29  0  0  0  0  0  0  0  0999 V2000
   -8.0670   -2.8589  -23.0406 O   0  0  0  0  0  0  0  0  0  0  0  0
   -7.2265   -1.6295  -22.8605 C   0  0  0  0  0  0  0  0  0  0  0  0
   -7.7372   -0.2974  -23.3238 N   0  0  0  0  0  0  0  0  0  0  0  0
   -6.8968    0.9319  -23.1438 C   0  0  0  0  0  0  0  0  0  0  0  0
   -7.4076    2.2640  -23.6071 C   0  0  0  0  0  0  0  0  0  0  0  0
   -8.7586    2.3668  -24.2505 C   0  0  0  0  0  0  0  0  0  0  0  0
   -9.5991    1.1374  -24.4305 C   0  0  0  0  0  0  0  0  0  0  0  0
   -9.0884   -0.1947  -23.9672 C   0  0  0  0  0  0  0  0  0  0  0  0
   -5.8754   -1.7323  -22.2172 C   0  0  0  0  0  0  0  0  0  0  0  0
   -5.6146   -1.0497  -20.9072 C   0  0  0  0  0  0  0  0  0  0  0  0
   -6.4653   -1.3675  -19.7134 C   0  0  0  0  0  0  0  0  0  0  0  0
   -6.2045   -0.6850  -18.4034 N   0  0  0  0  0  0  0  0  0  0  0  0
   -5.0929    0.3154  -18.2872 C   0  0  0  0  0  0  0  0  0  0  0  0
   -4.2421    0.6333  -19.4811 C   0  0  0  0  0  0  0  0  0  0  0  0
   -3.1305    1.6337  -19.3649 C   0  0  0  0  0  0  0  0  0  0  0  0
   -2.2798    1.9515  -20.5586 C   0  0  0  0  0  0  0  0  0  0  0  0
   -2.5406    1.2689  -21.8686 C   0  0  0  0  0  0  0  0  0  0  0  0
   -3.6522    0.2685  -21.9848 C   0  0  0  0  0  0  0  0  0  0  0  0
   -4.5029   -0.0493  -20.7910 C   0  0  0  0  0  0  0  0  0  0  0  0
   -9.9288   -1.4240  -24.1472 C   0  0  0  0  0  0  0  0  0  0  0  0
  -11.3225   -1.4672  -23.5945 C   0  0  0  0  0  0  0  0  0  0  0  0
  -12.3055   -0.3927  -23.9539 C   0  0  0  0  0  0  0  0  0  0  0  0
  -13.6993   -0.4359  -23.4012 C   0  0  0  0  0  0  0  0  0  0  0  0
  -14.1101   -1.5537  -22.4891 C   0  0  0  0  0  0  0  0  0  0  0  0
  -13.1272   -2.6282  -22.1297 C   0  0  0  0  0  0  0  0  0  0  0  0
  -11.7334   -2.5850  -22.6824 C   0  0  0  0  0  0  0  0  0  0  0  0
  1  2  2  0  0  0
  2  9  1  0  0  0
  9 10  1  0  0  0
 10 11  2  0  0  0
 11 12  1  0  0  0
 12 13  2  0  0  0
 13 14  1  0  0  0
 14 15  2  0  0  0
 15 16  1  0  0  0
 16 17  2  0  0  0
 17 18  1  0  0  0
 18 19  2  0  0  0
  2  3  1  0  0  0
  3  4  1  0  0  0
  4  5  1  0  0  0
  5  6  1  0  0  0
  6  7  1  0  0  0
  7  8  1  0  0  0
  8 20  1  0  0  0
 20 21  1  0  0  0
 21 22  2  0  0  0
 22 23  1  0  0  0
 23 24  2  0  0  0
 24 25  1  0  0  0
 25 26  2  0  0  0
 19 10  1  0  0  0
  8  3  1  0  0  0
 26 21  1  0  0  0
 19 14  1  0  0  0
M  END
> <minimizedAffinity>
-7.14310

> <CNNscore>
0.7343528867

> <CNNaffinity>
5.7720232010

> <CNN_VS>
4.2387018204

> <CNNaffinity_variance>
0.0300096571

$$$$



 26 29  0  0  0  0  0  0  0  0999 V2000
   -8.6385   -1.7374  -21.1036 O   0  0  0  0  0  0  0  0  0  0  0  0
   -7.5907   -2.3023  -22.0164 C   0  0  0  0  0  0  0  0  0  0  0  0
   -7.9807   -2.8519  -23.3565 N   0  0  0  0  0  0  0  0  0  0  0  0
   -6.9329   -3.4168  -24.2692 C   0  0  0  0  0  0  0  0  0  0  0  0
   -7.3229   -3.9663  -25.6093 C   0  0  0  0  0  0  0  0  0  0  0  0
   -8.7606   -3.9510  -26.0367 C   0  0  0  0  0  0  0  0  0  0  0  0
   -9.8084   -3.3861  -25.1240 C   0  0  0  0  0  0  0  0  0  0  0  0
   -9.4185   -2.8365  -23.7839 C   0  0  0  0  0  0  0  0  0  0  0  0
   -6.1530   -2.3176  -21.5890 C   0  0  0  0  0  0  0  0  0  0  0  0
   -5.7012   -1.4584  -20.4454 C   0  0  0  0  0  0  0  0  0  0  0  0
   -6.1993   -1.7342  -19.0577 C   0  0  0  0  0  0  0  0  0  0  0  0
   -5.7475   -0.8750  -17.9142 N   0  0  0  0  0  0  0  0  0  0  0  0
   -4.7978    0.2600  -18.1583 C   0  0  0  0  0  0  0  0  0  0  0  0
   -4.2997    0.5359  -19.5461 C   0  0  0  0  0  0  0  0  0  0  0  0
   -3.3500    1.6709  -19.7903 C   0  0  0  0  0  0  0  0  0  0  0  0
   -2.8520    1.9467  -21.1781 C   0  0  0  0  0  0  0  0  0  0  0  0
   -3.3037    1.0875  -22.3216 C   0  0  0  0  0  0  0  0  0  0  0  0
   -4.2534   -0.0475  -22.0774 C   0  0  0  0  0  0  0  0  0  0  0  0
   -4.7515   -0.3233  -20.6897 C   0  0  0  0  0  0  0  0  0  0  0  0
  -10.4662   -2.2716  -22.8711 C   0  0  0  0  0  0  0  0  0  0  0  0
  -11.1151   -0.9589  -23.1960 C   0  0  0  0  0  0  0  0  0  0  0  0
  -12.6102   -0.8568  -23.2600 C   0  0  0  0  0  0  0  0  0  0  0  0
  -13.2591    0.4561  -23.5849 C   0  0  0  0  0  0  0  0  0  0  0  0
  -12.4128    1.6667  -23.8458 C   0  0  0  0  0  0  0  0  0  0  0  0
  -10.9177    1.5646  -23.7818 C   0  0  0  0  0  0  0  0  0  0  0  0
  -10.2688    0.2519  -23.4569 C   0  0  0  0  0  0  0  0  0  0  0  0
  1  2  2  0  0  0
  2  9  1  0  0  0
  9 10  1  0  0  0
 10 11  2  0  0  0
 11 12  1  0  0  0
 12 13  2  0  0  0
 13 14  1  0  0  0
 14 15  2  0  0  0
 15 16  1  0  0  0
 16 17  2  0  0  0
 17 18  1  0  0  0
 18 19  2  0  0  0
  2  3  1  0  0  0
  3  4  1  0  0  0
  4  5  1  0  0  0
  5  6  1  0  0  0
  6  7  1  0  0  0
  7  8  1  0  0  0
  8 20  1  0  0  0
 20 21  1  0  0  0
 21 22  2  0  0  0
 22 23  1  0  0  0
 23 24  2  0  0  0
 24 25  1  0  0  0
 25 26  2  0  0  0
 19 10  1  0  0  0
  8  3  1  0  0  0
 26 21  1  0  0  0
 19 14  1  0  0  0
M  END
> <minimizedAffinity>
-7.74795

> <CNNscore>
0.7222918272

> <CNNaffinity>
5.6110305786

> <CNN_VS>
4.0528016090

> <CNNaffinity_variance>
0.3577775657

$$$$



 26 29  0  0  0  0  0  0  0  0999 V2000
   -8.6963   -1.5002  -21.0931 O   0  0  0  0  0  0  0  0  0  0  0  0
   -7.6785   -2.1857  -21.9558 C   0  0  0  0  0  0  0  0  0  0  0  0
   -8.0891   -2.7848  -23.2683 N   0  0  0  0  0  0  0  0  0  0  0  0
   -7.0713   -3.4703  -24.1309 C   0  0  0  0  0  0  0  0  0  0  0  0
   -7.4819   -4.0694  -25.4434 C   0  0  0  0  0  0  0  0  0  0  0  0
   -8.9102   -3.9829  -25.8932 C   0  0  0  0  0  0  0  0  0  0  0  0
   -9.9281   -3.2973  -25.0305 C   0  0  0  0  0  0  0  0  0  0  0  0
   -9.5175   -2.6983  -23.7181 C   0  0  0  0  0  0  0  0  0  0  0  0
   -6.2502   -2.2722  -21.5060 C   0  0  0  0  0  0  0  0  0  0  0  0
   -5.7690   -1.4203  -20.3690 C   0  0  0  0  0  0  0  0  0  0  0  0
   -6.2733   -1.6704  -18.9787 C   0  0  0  0  0  0  0  0  0  0  0  0
   -5.7921   -0.8184  -17.8418 N   0  0  0  0  0  0  0  0  0  0  0  0
   -4.8067    0.2836  -18.0951 C   0  0  0  0  0  0  0  0  0  0  0  0
   -4.3023    0.5338  -19.4855 C   0  0  0  0  0  0  0  0  0  0  0  0
   -3.3168    1.6359  -19.7389 C   0  0  0  0  0  0  0  0  0  0  0  0
   -2.8125    1.8860  -21.1293 C   0  0  0  0  0  0  0  0  0  0  0  0
   -3.2937    1.0340  -22.2662 C   0  0  0  0  0  0  0  0  0  0  0  0
   -4.2792   -0.0681  -22.0128 C   0  0  0  0  0  0  0  0  0  0  0  0
   -4.7835   -0.3182  -20.6225 C   0  0  0  0  0  0  0  0  0  0  0  0
  -10.5352   -2.0127  -22.8554 C   0  0  0  0  0  0  0  0  0  0  0  0
  -11.0253   -0.6424  -23.2186 C   0  0  0  0  0  0  0  0  0  0  0  0
  -10.0465    0.4250  -23.6095 C   0  0  0  0  0  0  0  0  0  0  0  0
  -10.5367    1.7954  -23.9727 C   0  0  0  0  0  0  0  0  0  0  0  0
  -12.0055    2.0984  -23.9450 C   0  0  0  0  0  0  0  0  0  0  0  0
  -12.9842    1.0310  -23.5541 C   0  0  0  0  0  0  0  0  0  0  0  0
  -12.4941   -0.3394  -23.1910 C   0  0  0  0  0  0  0  0  0  0  0  0
  1  2  2  0  0  0
  2  9  1  0  0  0
  9 10  1  0  0  0
 10 11  2  0  0  0
 11 12  1  0  0  0
 12 13  2  0  0  0
 13 14  1  0  0  0
 14 15  2  0  0  0
 15 16  1  0  0  0
 16 17  2  0  0  0
 17 18  1  0  0  0
 18 19  2  0  0  0
  2  3  1  0  0  0
  3  4  1  0  0  0
  4  5  1  0  0  0
  5  6  1  0  0  0
  6  7  1  0  0  0
  7  8  1  0  0  0
  8 20  1  0  0  0
 20 21  1  0  0  0
 21 22  2  0  0  0
 22 23  1  0  0  0
 23 24  2  0  0  0
 24 25  1  0  0  0
 25 26  2  0  0  0
 19 10  1  0  0  0
  8  3  1  0  0  0
 26 21  1  0  0  0
 19 14  1  0  0  0
M  END
> <minimizedAffinity>
-7.60766

> <CNNscore>
0.6758572459

> <CNNaffinity>
5.5477795601

> <CNN_VS>
3.7495069504

> <CNNaffinity_variance>
0.3644526601

$$$$



 26 29  0  0  0  0  0  0  0  0999 V2000
   -7.9824    1.2840  -23.2828 O   0  0  0  0  0  0  0  0  0  0  0  0
   -8.2348   -0.1279  -22.8436 C   0  0  0  0  0  0  0  0  0  0  0  0
   -9.6077   -0.7187  -22.9704 N   0  0  0  0  0  0  0  0  0  0  0  0
   -9.8602   -2.1306  -22.5313 C   0  0  0  0  0  0  0  0  0  0  0  0
  -11.2331   -2.7213  -22.6580 C   0  0  0  0  0  0  0  0  0  0  0  0
  -12.3536   -1.9002  -23.2238 C   0  0  0  0  0  0  0  0  0  0  0  0
  -12.1012   -0.4882  -23.6630 C   0  0  0  0  0  0  0  0  0  0  0  0
  -10.7283    0.1025  -23.5362 C   0  0  0  0  0  0  0  0  0  0  0  0
   -7.1143   -0.9491  -22.2778 C   0  0  0  0  0  0  0  0  0  0  0  0
   -6.5020   -0.5757  -20.9604 C   0  0  0  0  0  0  0  0  0  0  0  0
   -7.1659   -0.9895  -19.6806 C   0  0  0  0  0  0  0  0  0  0  0  0
   -6.5536   -0.6162  -18.3631 N   0  0  0  0  0  0  0  0  0  0  0  0
   -5.2773    0.1709  -18.3255 C   0  0  0  0  0  0  0  0  0  0  0  0
   -4.6133    0.5848  -19.6053 C   0  0  0  0  0  0  0  0  0  0  0  0
   -3.3370    1.3719  -19.5676 C   0  0  0  0  0  0  0  0  0  0  0  0
   -2.6730    1.7857  -20.8474 C   0  0  0  0  0  0  0  0  0  0  0  0
   -3.2854    1.4124  -22.1649 C   0  0  0  0  0  0  0  0  0  0  0  0
   -4.5617    0.6253  -22.2025 C   0  0  0  0  0  0  0  0  0  0  0  0
   -5.2256    0.2115  -20.9228 C   0  0  0  0  0  0  0  0  0  0  0  0
  -10.4758    1.5144  -23.9753 C   0  0  0  0  0  0  0  0  0  0  0  0
  -11.4142    2.6082  -23.5595 C   0  0  0  0  0  0  0  0  0  0  0  0
  -12.2812    2.4325  -22.3481 C   0  0  0  0  0  0  0  0  0  0  0  0
  -13.2196    3.5264  -21.9323 C   0  0  0  0  0  0  0  0  0  0  0  0
  -13.2909    4.7960  -22.7279 C   0  0  0  0  0  0  0  0  0  0  0  0
  -12.4239    4.9718  -23.9392 C   0  0  0  0  0  0  0  0  0  0  0  0
  -11.4856    3.8779  -24.3550 C   0  0  0  0  0  0  0  0  0  0  0  0
  1  2  2  0  0  0
  2  9  1  0  0  0
  9 10  1  0  0  0
 10 11  2  0  0  0
 11 12  1  0  0  0
 12 13  2  0  0  0
 13 14  1  0  0  0
 14 15  2  0  0  0
 15 16  1  0  0  0
 16 17  2  0  0  0
 17 18  1  0  0  0
 18 19  2  0  0  0
  2  3  1  0  0  0
  3  4  1  0  0  0
  4  5  1  0  0  0
  5  6  1  0  0  0
  6  7  1  0  0  0
  7  8  1  0  0  0
  8 20  1  0  0  0
 20 21  1  0  0  0
 21 22  2  0  0  0
 22 23  1  0  0  0
 23 24  2  0  0  0
 24 25  1  0  0  0
 25 26  2  0  0  0
 19 10  1  0  0  0
  8  3  1  0  0  0
 26 21  1  0  0  0
 19 14  1  0  0  0
M  END
> <minimizedAffinity>
-7.82993

> <CNNscore>
0.5842006207

> <CNNaffinity>
5.6733140945

> <CNN_VS>
3.3143537045

> <CNNaffinity_variance>
0.2644949853

$$$$



 26 29  0  0  0  0  0  0  0  0999 V2000
   -7.9498    1.2441  -23.3157 O   0  0  0  0  0  0  0  0  0  0  0  0
   -8.2071   -0.1629  -22.8636 C   0  0  0  0  0  0  0  0  0  0  0  0
   -9.5794   -0.7540  -22.9954 N   0  0  0  0  0  0  0  0  0  0  0  0
   -9.8367   -2.1609  -22.5434 C   0  0  0  0  0  0  0  0  0  0  0  0
  -11.2090   -2.7519  -22.6753 C   0  0  0  0  0  0  0  0  0  0  0  0
  -12.3241   -1.9360  -23.2591 C   0  0  0  0  0  0  0  0  0  0  0  0
  -12.0668   -0.5290  -23.7111 C   0  0  0  0  0  0  0  0  0  0  0  0
  -10.6945    0.0620  -23.5793 C   0  0  0  0  0  0  0  0  0  0  0  0
   -7.0920   -0.9788  -22.2798 C   0  0  0  0  0  0  0  0  0  0  0  0
   -6.4931   -0.5943  -20.9594 C   0  0  0  0  0  0  0  0  0  0  0  0
   -7.1726   -0.9932  -19.6830 C   0  0  0  0  0  0  0  0  0  0  0  0
   -6.5737   -0.6087  -18.3626 N   0  0  0  0  0  0  0  0  0  0  0  0
   -5.2953    0.1747  -18.3186 C   0  0  0  0  0  0  0  0  0  0  0  0
   -4.6157    0.5736  -19.5950 C   0  0  0  0  0  0  0  0  0  0  0  0
   -3.3373    1.3570  -19.5509 C   0  0  0  0  0  0  0  0  0  0  0  0
   -2.6578    1.7558  -20.8273 C   0  0  0  0  0  0  0  0  0  0  0  0
   -3.2567    1.3713  -22.1477 C   0  0  0  0  0  0  0  0  0  0  0  0
   -4.5351    0.5879  -22.1917 C   0  0  0  0  0  0  0  0  0  0  0  0
   -5.2146    0.1891  -20.9154 C   0  0  0  0  0  0  0  0  0  0  0  0
  -10.4372    1.4689  -24.0313 C   0  0  0  0  0  0  0  0  0  0  0  0
  -11.3331    2.5803  -23.5707 C   0  0  0  0  0  0  0  0  0  0  0  0
  -11.3145    3.9017  -24.2803 C   0  0  0  0  0  0  0  0  0  0  0  0
  -12.2104    5.0131  -23.8196 C   0  0  0  0  0  0  0  0  0  0  0  0
  -13.1249    4.8030  -22.6493 C   0  0  0  0  0  0  0  0  0  0  0  0
  -13.1436    3.4816  -21.9398 C   0  0  0  0  0  0  0  0  0  0  0  0
  -12.2477    2.3703  -22.4004 C   0  0  0  0  0  0  0  0  0  0  0  0
  1  2  2  0  0  0
  2  9  1  0  0  0
  9 10  1  0  0  0
 10 11  2  0  0  0
 11 12  1  0  0  0
 12 13  2  0  0  0
 13 14  1  0  0  0
 14 15  2  0  0  0
 15 16  1  0  0  0
 16 17  2  0  0  0
 17 18  1  0  0  0
 18 19  2  0  0  0
  2  3  1  0  0  0
  3  4  1  0  0  0
  4  5  1  0  0  0
  5  6  1  0  0  0
  6  7  1  0  0  0
  7  8  1  0  0  0
  8 20  1  0  0  0
 20 21  1  0  0  0
 21 22  2  0  0  0
 22 23  1  0  0  0
 23 24  2  0  0  0
 24 25  1  0  0  0
 25 26  2  0  0  0
 19 10  1  0  0  0
  8  3  1  0  0  0
 26 21  1  0  0  0
 19 14  1  0  0  0
M  END
> <minimizedAffinity>
-7.83064

> <CNNscore>
0.5742826462

> <CNNaffinity>
5.6567640305

> <CNN_VS>
3.2485814095

> <CNNaffinity_variance>
0.2804991007

$$$$



 26 29  0  0  0  0  0  0  0  0999 V2000
   -8.4811   -2.8446  -22.3604 O   0  0  0  0  0  0  0  0  0  0  0  0
   -7.4693   -1.7846  -22.6809 C   0  0  0  0  0  0  0  0  0  0  0  0
   -6.4777   -2.0036  -23.7849 N   0  0  0  0  0  0  0  0  0  0  0  0
   -5.4659   -0.9437  -24.1055 C   0  0  0  0  0  0  0  0  0  0  0  0
   -4.4743   -1.1627  -25.2095 C   0  0  0  0  0  0  0  0  0  0  0  0
   -4.4945   -2.4417  -25.9929 C   0  0  0  0  0  0  0  0  0  0  0  0
   -5.5064   -3.5017  -25.6724 C   0  0  0  0  0  0  0  0  0  0  0  0
   -6.4979   -3.2827  -24.5684 C   0  0  0  0  0  0  0  0  0  0  0  0
   -7.4491   -0.5057  -21.8975 C   0  0  0  0  0  0  0  0  0  0  0  0
   -6.6185   -0.4016  -20.6528 C   0  0  0  0  0  0  0  0  0  0  0  0
   -6.9630   -1.2290  -19.4500 C   0  0  0  0  0  0  0  0  0  0  0  0
   -6.1324   -1.1250  -18.2052 N   0  0  0  0  0  0  0  0  0  0  0  0
   -4.9574   -0.1936  -18.1633 C   0  0  0  0  0  0  0  0  0  0  0  0
   -4.6129    0.6339  -19.3661 C   0  0  0  0  0  0  0  0  0  0  0  0
   -3.4379    1.5653  -19.3242 C   0  0  0  0  0  0  0  0  0  0  0  0
   -3.0934    2.3926  -20.5270 C   0  0  0  0  0  0  0  0  0  0  0  0
   -3.9240    2.2886  -21.7717 C   0  0  0  0  0  0  0  0  0  0  0  0
   -5.0990    1.3572  -21.8137 C   0  0  0  0  0  0  0  0  0  0  0  0
   -5.4435    0.5298  -20.6109 C   0  0  0  0  0  0  0  0  0  0  0  0
   -7.5097   -4.3426  -24.2479 C   0  0  0  0  0  0  0  0  0  0  0  0
   -8.2969   -4.9860  -25.3507 C   0  0  0  0  0  0  0  0  0  0  0  0
   -8.8847   -4.1428  -26.4432 C   0  0  0  0  0  0  0  0  0  0  0  0
   -9.6719   -4.7863  -27.5461 C   0  0  0  0  0  0  0  0  0  0  0  0
   -9.8713   -6.2729  -27.5564 C   0  0  0  0  0  0  0  0  0  0  0  0
   -9.2835   -7.1161  -26.4640 C   0  0  0  0  0  0  0  0  0  0  0  0
   -8.4963   -6.4727  -25.3611 C   0  0  0  0  0  0  0  0  0  0  0  0
  1  2  2  0  0  0
  2  9  1  0  0  0
  9 10  1  0  0  0
 10 11  2  0  0  0
 11 12  1  0  0  0
 12 13  2  0  0  0
 13 14  1  0  0  0
 14 15  2  0  0  0
 15 16  1  0  0  0
 16 17  2  0  0  0
 17 18  1  0  0  0
 18 19  2  0  0  0
  2  3  1  0  0  0
  3  4  1  0  0  0
  4  5  1  0  0  0
  5  6  1  0  0  0
  6  7  1  0  0  0
  7  8  1  0  0  0
  8 20  1  0  0  0
 20 21  1  0  0  0
 21 22  2  0  0  0
 22 23  1  0  0  0
 23 24  2  0  0  0
 24 25  1  0  0  0
 25 26  2  0  0  0
 19 10  1  0  0  0
  8  3  1  0  0  0
 26 21  1  0  0  0
 19 14  1  0  0  0
M  END
> <minimizedAffinity>
-6.75869

> <CNNscore>
0.4707131982

> <CNNaffinity>
5.3087053299

> <CNN_VS>
2.4988777637

> <CNNaffinity_variance>
0.1119514331

$$$$



 26 29  0  0  0  0  0  0  0  0999 V2000
   -7.6512    1.0676  -22.0715 O   0  0  0  0  0  0  0  0  0  0  0  0
   -7.9513   -0.0999  -22.9642 C   0  0  0  0  0  0  0  0  0  0  0  0
   -7.3305   -1.4365  -22.6851 N   0  0  0  0  0  0  0  0  0  0  0  0
   -7.6305   -2.6040  -23.5778 C   0  0  0  0  0  0  0  0  0  0  0  0
   -7.0096   -3.9406  -23.2987 C   0  0  0  0  0  0  0  0  0  0  0  0
   -6.0887   -4.1098  -22.1268 C   0  0  0  0  0  0  0  0  0  0  0  0
   -5.7886   -2.9423  -21.2340 C   0  0  0  0  0  0  0  0  0  0  0  0
   -6.4095   -1.6056  -21.5132 C   0  0  0  0  0  0  0  0  0  0  0  0
   -8.8722    0.0693  -24.1361 C   0  0  0  0  0  0  0  0  0  0  0  0
  -10.2645    0.5871  -23.9272 C   0  0  0  0  0  0  0  0  0  0  0  0
  -10.5675    2.0380  -24.1574 C   0  0  0  0  0  0  0  0  0  0  0  0
  -11.9597    2.5558  -23.9486 N   0  0  0  0  0  0  0  0  0  0  0  0
  -13.0489    1.6226  -23.5096 C   0  0  0  0  0  0  0  0  0  0  0  0
  -12.7460    0.1716  -23.2794 C   0  0  0  0  0  0  0  0  0  0  0  0
  -13.8352   -0.7615  -22.8404 C   0  0  0  0  0  0  0  0  0  0  0  0
  -13.5322   -2.2124  -22.6102 C   0  0  0  0  0  0  0  0  0  0  0  0
  -12.1400   -2.7302  -22.8190 C   0  0  0  0  0  0  0  0  0  0  0  0
  -11.0508   -1.7970  -23.2580 C   0  0  0  0  0  0  0  0  0  0  0  0
  -11.3537   -0.3461  -23.4882 C   0  0  0  0  0  0  0  0  0  0  0  0
   -6.1095   -0.4382  -20.6205 C   0  0  0  0  0  0  0  0  0  0  0  0
   -4.7890    0.2658  -20.7248 C   0  0  0  0  0  0  0  0  0  0  0  0
   -4.2530    1.0322  -19.5521 C   0  0  0  0  0  0  0  0  0  0  0  0
   -2.9325    1.7362  -19.6564 C   0  0  0  0  0  0  0  0  0  0  0  0
   -2.1481    1.6737  -20.9334 C   0  0  0  0  0  0  0  0  0  0  0  0
   -2.6842    0.9073  -22.1062 C   0  0  0  0  0  0  0  0  0  0  0  0
   -4.0046    0.2033  -22.0019 C   0  0  0  0  0  0  0  0  0  0  0  0
  1  2  2  0  0  0
  2  9  1  0  0  0
  9 10  1  0  0  0
 10 11  2  0  0  0
 11 12  1  0  0  0
 12 13  2  0  0  0
 13 14  1  0  0  0
 14 15  2  0  0  0
 15 16  1  0  0  0
 16 17  2  0  0  0
 17 18  1  0  0  0
 18 19  2  0  0  0
  2  3  1  0  0  0
  3  4  1  0  0  0
  4  5  1  0  0  0
  5  6  1  0  0  0
  6  7  1  0  0  0
  7  8  1  0  0  0
  8 20  1  0  0  0
 20 21  1  0  0  0
 21 22  2  0  0  0
 22 23  1  0  0  0
 23 24  2  0  0  0
 24 25  1  0  0  0
 25 26  2  0  0  0
 19 10  1  0  0  0
  8  3  1  0  0  0
 26 21  1  0  0  0
 19 14  1  0  0  0
M  END
> <minimizedAffinity>
-6.83293

> <CNNscore>
0.4622919261

> <CNNaffinity>
5.3566417694

> <CNN_VS>
2.4763321877

> <CNNaffinity_variance>
0.2086663544

$$$$



 26 29  0  0  0  0  0  0  0  0999 V2000
   -9.7500    0.7223  -21.9822 O   0  0  0  0  0  0  0  0  0  0  0  0
   -8.6195    0.5740  -22.9569 C   0  0  0  0  0  0  0  0  0  0  0  0
   -8.6328    1.3445  -24.2438 N   0  0  0  0  0  0  0  0  0  0  0  0
   -7.5024    1.1962  -25.2185 C   0  0  0  0  0  0  0  0  0  0  0  0
   -7.5158    1.9667  -26.5054 C   0  0  0  0  0  0  0  0  0  0  0  0
   -8.6595    2.8855  -26.8176 C   0  0  0  0  0  0  0  0  0  0  0  0
   -9.7900    3.0339  -25.8429 C   0  0  0  0  0  0  0  0  0  0  0  0
   -9.7767    2.2633  -24.5560 C   0  0  0  0  0  0  0  0  0  0  0  0
   -7.4757   -0.3449  -22.6447 C   0  0  0  0  0  0  0  0  0  0  0  0
   -6.8798   -0.3598  -21.2682 C   0  0  0  0  0  0  0  0  0  0  0  0
   -7.5269   -1.1635  -20.1795 C   0  0  0  0  0  0  0  0  0  0  0  0
   -6.9310   -1.1784  -18.8030 N   0  0  0  0  0  0  0  0  0  0  0  0
   -5.6880   -0.3896  -18.5153 C   0  0  0  0  0  0  0  0  0  0  0  0
   -5.0409    0.4142  -19.6040 C   0  0  0  0  0  0  0  0  0  0  0  0
   -3.7980    1.2030  -19.3163 C   0  0  0  0  0  0  0  0  0  0  0  0
   -3.1510    2.0067  -20.4050 C   0  0  0  0  0  0  0  0  0  0  0  0
   -3.7469    2.0216  -21.7815 C   0  0  0  0  0  0  0  0  0  0  0  0
   -4.9898    1.2328  -22.0692 C   0  0  0  0  0  0  0  0  0  0  0  0
   -5.6368    0.4291  -20.9805 C   0  0  0  0  0  0  0  0  0  0  0  0
  -10.9071    2.4117  -23.5813 C   0  0  0  0  0  0  0  0  0  0  0  0
  -11.8391    3.5823  -23.6862 C   0  0  0  0  0  0  0  0  0  0  0  0
  -12.0084    4.2911  -24.9973 C   0  0  0  0  0  0  0  0  0  0  0  0
  -12.9404    5.4617  -25.1021 C   0  0  0  0  0  0  0  0  0  0  0  0
  -13.7031    5.9235  -23.8960 C   0  0  0  0  0  0  0  0  0  0  0  0
  -13.5339    5.2147  -22.5849 C   0  0  0  0  0  0  0  0  0  0  0  0
  -12.6019    4.0441  -22.4800 C   0  0  0  0  0  0  0  0  0  0  0  0
  1  2  2  0  0  0
  2  9  1  0  0  0
  9 10  1  0  0  0
 10 11  2  0  0  0
 11 12  1  0  0  0
 12 13  2  0  0  0
 13 14  1  0  0  0
 14 15  2  0  0  0
 15 16  1  0  0  0
 16 17  2  0  0  0
 17 18  1  0  0  0
 18 19  2  0  0  0
  2  3  1  0  0  0
  3  4  1  0  0  0
  4  5  1  0  0  0
  5  6  1  0  0  0
  6  7  1  0  0  0
  7  8  1  0  0  0
  8 20  1  0  0  0
 20 21  1  0  0  0
 21 22  2  0  0  0
 22 23  1  0  0  0
 23 24  2  0  0  0
 24 25  1  0  0  0
 25 26  2  0  0  0
 19 10  1  0  0  0
  8  3  1  0  0  0
 26 21  1  0  0  0
 19 14  1  0  0  0
M  END
> <minimizedAffinity>
-7.11730

> <CNNscore>
0.4528153539

> <CNNaffinity>
5.2346849442

> <CNN_VS>
2.3703458309

> <CNNaffinity_variance>
0.0860522315

$$$$
