


 21 23  0  0  0  0  0  0  0  0999 V2000
   -6.5762   -1.9272  -21.7304 C   0  0  0  0  0  0  0  0  0  0  0  0
  -10.0059   -5.7041  -26.3585 C   0  0  0  0  0  0  0  0  0  0  0  0
   -9.0152   -5.4723  -25.2564 C   0  0  0  0  0  0  0  0  0  0  0  0
   -8.2597   -6.6832  -24.7950 C   0  0  0  0  0  0  0  0  0  0  0  0
   -7.2134   -6.7811  -23.7247 C   0  0  0  0  0  0  0  0  0  0  0  0
   -6.6641   -5.6923  -22.8513 C   0  0  0  0  0  0  0  0  0  0  0  0
   -7.0256   -4.2366  -22.8326 N   0  0  0  0  0  0  0  0  0  0  0  0
   -6.2898   -3.3961  -21.8314 C   0  0  0  0  0  0  0  0  0  0  0  0
   -5.2676   -4.0247  -20.9313 O   0  0  0  0  0  0  0  0  0  0  0  0
   -8.0255   -3.5103  -23.6826 C   0  0  0  0  0  0  0  0  0  0  0  0
   -8.9109   -4.0602  -24.7613 C   0  0  0  0  0  0  0  0  0  0  0  0
   -6.0798   -1.1457  -20.5502 C   0  0  0  0  0  0  0  0  0  0  0  0
   -6.7615   -1.2805  -19.2210 C   0  0  0  0  0  0  0  0  0  0  0  0
   -6.2651   -0.4990  -18.0408 N   0  0  0  0  0  0  0  0  0  0  0  0
   -5.0869    0.4172  -18.1899 C   0  0  0  0  0  0  0  0  0  0  0  0
   -4.4050    0.5520  -19.5192 C   0  0  0  0  0  0  0  0  0  0  0  0
   -3.2268    1.4682  -19.6683 C   0  0  0  0  0  0  0  0  0  0  0  0
   -2.5450    1.6029  -20.9975 C   0  0  0  0  0  0  0  0  0  0  0  0
   -3.0414    0.8214  -22.1777 C   0  0  0  0  0  0  0  0  0  0  0  0
   -4.2197   -0.0948  -22.0286 C   0  0  0  0  0  0  0  0  0  0  0  0
   -4.9015   -0.2295  -20.6994 C   0  0  0  0  0  0  0  0  0  0  0  0
  3  2  1  0  0  0
  3  4  1  0  0  0
  4  5  2  0  0  0
  5  6  1  0  0  0
  6  7  1  0  0  0
  7  8  1  0  0  0
  8  9  2  0  0  0
  8  1  1  0  0  0
  1 12  1  0  0  0
 12 13  2  0  0  0
 13 14  1  0  0  0
 14 15  2  0  0  0
 15 16  1  0  0  0
 16 17  2  0  0  0
 17 18  1  0  0  0
 18 19  2  0  0  0
 19 20  1  0  0  0
 20 21  2  0  0  0
  7 10  1  0  0  0
 10 11  1  0  0  0
 11  3  1  0  0  0
 21 12  1  0  0  0
 21 16  1  0  0  0
M  END
> <minimizedAffinity>
-7.28148

> <CNNscore>
0.7410191894

> <CNNaffinity>
5.2159605026

> <CNN_VS>
3.8651268482

> <CNNaffinity_variance>
0.4045625627

$$$$



 21 23  0  0  0  0  0  0  0  0999 V2000
   -6.5029   -2.2375  -21.6073 C   0  0  0  0  0  0  0  0  0  0  0  0
   -9.0049   -6.6399  -26.2770 C   0  0  0  0  0  0  0  0  0  0  0  0
   -9.0556   -5.4527  -25.3617 C   0  0  0  0  0  0  0  0  0  0  0  0
  -10.3435   -4.6837  -25.3639 C   0  0  0  0  0  0  0  0  0  0  0  0
  -10.7055   -3.4635  -24.5700 C   0  0  0  0  0  0  0  0  0  0  0  0
   -9.8692   -2.7109  -23.5780 C   0  0  0  0  0  0  0  0  0  0  0  0
   -8.4641   -2.9927  -23.1348 N   0  0  0  0  0  0  0  0  0  0  0  0
   -7.9002   -2.0453  -22.1177 C   0  0  0  0  0  0  0  0  0  0  0  0
   -8.7336   -0.9056  -21.6111 O   0  0  0  0  0  0  0  0  0  0  0  0
   -7.5485   -4.0966  -23.5740 C   0  0  0  0  0  0  0  0  0  0  0  0
   -7.8117   -5.1914  -24.5651 C   0  0  0  0  0  0  0  0  0  0  0  0
   -5.9902   -1.3841  -20.4853 C   0  0  0  0  0  0  0  0  0  0  0  0
   -6.5652   -1.5314  -19.1078 C   0  0  0  0  0  0  0  0  0  0  0  0
   -6.0525   -0.6779  -17.9859 N   0  0  0  0  0  0  0  0  0  0  0  0
   -4.9648    0.3228  -18.2414 C   0  0  0  0  0  0  0  0  0  0  0  0
   -4.3897    0.4701  -19.6190 C   0  0  0  0  0  0  0  0  0  0  0  0
   -3.3020    1.4708  -19.8746 C   0  0  0  0  0  0  0  0  0  0  0  0
   -2.7269    1.6181  -21.2521 C   0  0  0  0  0  0  0  0  0  0  0  0
   -3.2396    0.7646  -22.3740 C   0  0  0  0  0  0  0  0  0  0  0  0
   -4.3274   -0.2361  -22.1185 C   0  0  0  0  0  0  0  0  0  0  0  0
   -4.9024   -0.3833  -20.7410 C   0  0  0  0  0  0  0  0  0  0  0  0
  3  2  1  0  0  0
  3  4  1  0  0  0
  4  5  2  0  0  0
  5  6  1  0  0  0
  6  7  1  0  0  0
  7  8  1  0  0  0
  8  9  2  0  0  0
  8  1  1  0  0  0
  1 12  1  0  0  0
 12 13  2  0  0  0
 13 14  1  0  0  0
 14 15  2  0  0  0
 15 16  1  0  0  0
 16 17  2  0  0  0
 17 18  1  0  0  0
 18 19  2  0  0  0
 19 20  1  0  0  0
 20 21  2  0  0  0
  7 10  1  0  0  0
 10 11  1  0  0  0
 11  3  1  0  0  0
 21 12  1  0  0  0
 21 16  1  0  0  0
M  END
> <minimizedAffinity>
-7.06530

> <CNNscore>
0.6484830379

> <CNNaffinity>
5.1301622391

> <CNN_VS>
3.3268232346

> <CNNaffinity_variance>
0.1840151846

$$$$



 21 23  0  0  0  0  0  0  0  0999 V2000
   -6.9894   -1.1503  -22.3716 C   0  0  0  0  0  0  0  0  0  0  0  0
  -13.0986    1.8356  -23.4711 C   0  0  0  0  0  0  0  0  0  0  0  0
  -12.1690    0.6792  -23.2509 C   0  0  0  0  0  0  0  0  0  0  0  0
  -12.8090   -0.6773  -23.2401 C   0  0  0  0  0  0  0  0  0  0  0  0
  -12.1603   -2.0159  -23.0463 C   0  0  0  0  0  0  0  0  0  0  0  0
  -10.7116   -2.3285  -22.8154 C   0  0  0  0  0  0  0  0  0  0  0  0
   -9.5536   -1.3797  -22.7213 N   0  0  0  0  0  0  0  0  0  0  0  0
   -8.2136   -2.0100  -22.4820 C   0  0  0  0  0  0  0  0  0  0  0  0
   -8.0979   -3.5000  -22.3530 O   0  0  0  0  0  0  0  0  0  0  0  0
   -9.5584    0.1159  -22.8348 C   0  0  0  0  0  0  0  0  0  0  0  0
  -10.7223    1.0323  -23.0704 C   0  0  0  0  0  0  0  0  0  0  0  0
   -6.4999   -0.7119  -21.0232 C   0  0  0  0  0  0  0  0  0  0  0  0
   -7.2941   -1.0400  -19.7938 C   0  0  0  0  0  0  0  0  0  0  0  0
   -6.8046   -0.6015  -18.4454 N   0  0  0  0  0  0  0  0  0  0  0  0
   -5.5208    0.1650  -18.3265 C   0  0  0  0  0  0  0  0  0  0  0  0
   -4.7265    0.4932  -19.5559 C   0  0  0  0  0  0  0  0  0  0  0  0
   -3.4427    1.2598  -19.4369 C   0  0  0  0  0  0  0  0  0  0  0  0
   -2.6484    1.5879  -20.6663 C   0  0  0  0  0  0  0  0  0  0  0  0
   -3.1379    1.1494  -22.0146 C   0  0  0  0  0  0  0  0  0  0  0  0
   -4.4217    0.3829  -22.1336 C   0  0  0  0  0  0  0  0  0  0  0  0
   -5.2160    0.0548  -20.9043 C   0  0  0  0  0  0  0  0  0  0  0  0
  3  2  1  0  0  0
  3  4  1  0  0  0
  4  5  2  0  0  0
  5  6  1  0  0  0
  6  7  1  0  0  0
  7  8  1  0  0  0
  8  9  2  0  0  0
  8  1  1  0  0  0
  1 12  1  0  0  0
 12 13  2  0  0  0
 13 14  1  0  0  0
 14 15  2  0  0  0
 15 16  1  0  0  0
 16 17  2  0  0  0
 17 18  1  0  0  0
 18 19  2  0  0  0
 19 20  1  0  0  0
 20 21  2  0  0  0
  7 10  1  0  0  0
 10 11  1  0  0  0
 11  3  1  0  0  0
 21 12  1  0  0  0
 21 16  1  0  0  0
M  END
> <minimizedAffinity>
-7.23486

> <CNNscore>
0.5030334592

> <CNNaffinity>
5.0184779167

> <CNN_VS>
2.5244622231

> <CNNaffinity_variance>
0.4904882312

$$$$



 21 23  0  0  0  0  0  0  0  0999 V2000
   -6.2523   -1.7104  -21.2898 C   0  0  0  0  0  0  0  0  0  0  0  0
   -9.6965   -5.5575  -25.8488 C   0  0  0  0  0  0  0  0  0  0  0  0
   -9.5192   -4.4225  -24.8844 C   0  0  0  0  0  0  0  0  0  0  0  0
  -10.7046   -3.5185  -24.7182 C   0  0  0  0  0  0  0  0  0  0  0  0
  -10.8435   -2.3103  -23.8401 C   0  0  0  0  0  0  0  0  0  0  0  0
   -9.8314   -1.7075  -22.9115 C   0  0  0  0  0  0  0  0  0  0  0  0
   -8.4303   -2.1643  -22.6315 N   0  0  0  0  0  0  0  0  0  0  0  0
   -7.6627   -1.3398  -21.6411 C   0  0  0  0  0  0  0  0  0  0  0  0
   -8.3056   -0.1446  -21.0019 O   0  0  0  0  0  0  0  0  0  0  0  0
   -7.6954   -3.3364  -23.2110 C   0  0  0  0  0  0  0  0  0  0  0  0
   -8.1800   -4.3414  -24.2136 C   0  0  0  0  0  0  0  0  0  0  0  0
   -5.3161   -0.6706  -20.7492 C   0  0  0  0  0  0  0  0  0  0  0  0
   -5.3659   -0.2990  -19.2968 C   0  0  0  0  0  0  0  0  0  0  0  0
   -4.4296    0.7408  -18.7562 N   0  0  0  0  0  0  0  0  0  0  0  0
   -3.4437    1.4091  -19.6679 C   0  0  0  0  0  0  0  0  0  0  0  0
   -3.3939    1.0375  -21.1203 C   0  0  0  0  0  0  0  0  0  0  0  0
   -2.4079    1.7058  -22.0320 C   0  0  0  0  0  0  0  0  0  0  0  0
   -2.3582    1.3342  -23.4844 C   0  0  0  0  0  0  0  0  0  0  0  0
   -3.2944    0.2944  -24.0251 C   0  0  0  0  0  0  0  0  0  0  0  0
   -4.2804   -0.3739  -23.1133 C   0  0  0  0  0  0  0  0  0  0  0  0
   -4.3301   -0.0023  -21.6610 C   0  0  0  0  0  0  0  0  0  0  0  0
  3  2  1  0  0  0
  3  4  1  0  0  0
  4  5  2  0  0  0
  5  6  1  0  0  0
  6  7  1  0  0  0
  7  8  1  0  0  0
  8  9  2  0  0  0
  8  1  1  0  0  0
  1 12  1  0  0  0
 12 13  2  0  0  0
 13 14  1  0  0  0
 14 15  2  0  0  0
 15 16  1  0  0  0
 16 17  2  0  0  0
 17 18  1  0  0  0
 18 19  2  0  0  0
 19 20  1  0  0  0
 20 21  2  0  0  0
  7 10  1  0  0  0
 10 11  1  0  0  0
 11  3  1  0  0  0
 21 12  1  0  0  0
 21 16  1  0  0  0
M  END
> <minimizedAffinity>
-6.29020

> <CNNscore>
0.4758479297

> <CNNaffinity>
4.7583942413

> <CNN_VS>
2.2642719746

> <CNNaffinity_variance>
0.1951000988

$$$$



 21 23  0  0  0  0  0  0  0  0999 V2000
   -7.3237   -0.3233  -22.7689 C   0  0  0  0  0  0  0  0  0  0  0  0
  -13.7416   -2.8095  -22.4931 C   0  0  0  0  0  0  0  0  0  0  0  0
  -12.6967   -1.7654  -22.7534 C   0  0  0  0  0  0  0  0  0  0  0  0
  -13.2064   -0.4425  -23.2435 C   0  0  0  0  0  0  0  0  0  0  0  0
  -12.4255    0.7903  -23.5904 C   0  0  0  0  0  0  0  0  0  0  0  0
  -10.9420    1.0048  -23.5329 C   0  0  0  0  0  0  0  0  0  0  0  0
   -9.8730    0.0394  -23.1141 N   0  0  0  0  0  0  0  0  0  0  0  0
   -8.4678    0.5613  -23.1669 C   0  0  0  0  0  0  0  0  0  0  0  0
   -8.2066    1.9680  -23.6179 O   0  0  0  0  0  0  0  0  0  0  0  0
  -10.0235   -1.3788  -22.6496 C   0  0  0  0  0  0  0  0  0  0  0  0
  -11.2801   -2.1821  -22.4890 C   0  0  0  0  0  0  0  0  0  0  0  0
   -6.7995   -0.2849  -21.3640 C   0  0  0  0  0  0  0  0  0  0  0  0
   -7.5688   -0.9446  -20.2581 C   0  0  0  0  0  0  0  0  0  0  0  0
   -7.0446   -0.9062  -18.8532 N   0  0  0  0  0  0  0  0  0  0  0  0
   -5.7511   -0.2081  -18.5541 C   0  0  0  0  0  0  0  0  0  0  0  0
   -4.9817    0.4516  -19.6600 C   0  0  0  0  0  0  0  0  0  0  0  0
   -3.6882    1.1497  -19.3610 C   0  0  0  0  0  0  0  0  0  0  0  0
   -2.9189    1.8094  -20.4668 C   0  0  0  0  0  0  0  0  0  0  0  0
   -3.4431    1.7710  -21.8717 C   0  0  0  0  0  0  0  0  0  0  0  0
   -4.7366    1.0729  -22.1708 C   0  0  0  0  0  0  0  0  0  0  0  0
   -5.5059    0.4132  -21.0649 C   0  0  0  0  0  0  0  0  0  0  0  0
  3  2  1  0  0  0
  3  4  1  0  0  0
  4  5  2  0  0  0
  5  6  1  0  0  0
  6  7  1  0  0  0
  7  8  1  0  0  0
  8  9  2  0  0  0
  8  1  1  0  0  0
  1 12  1  0  0  0
 12 13  2  0  0  0
 13 14  1  0  0  0
 14 15  2  0  0  0
 15 16  1  0  0  0
 16 17  2  0  0  0
 17 18  1  0  0  0
 18 19  2  0  0  0
 19 20  1  0  0  0
 20 21  2  0  0  0
  7 10  1  0  0  0
 10 11  1  0  0  0
 11  3  1  0  0  0
 21 12  1  0  0  0
 21 16  1  0  0  0
M  END
> <minimizedAffinity>
-6.59044

> <CNNscore>
0.4514616728

> <CNNaffinity>
5.0021100044

> <CNN_VS>
2.2582609653

> <CNNaffinity_variance>
0.2410325259

$$$$



 21 23  0  0  0  0  0  0  0  0999 V2000
   -6.2294   -1.7128  -21.8427 C   0  0  0  0  0  0  0  0  0  0  0  0
   -8.7882   -6.8974  -25.5870 C   0  0  0  0  0  0  0  0  0  0  0  0
   -8.0145   -6.2884  -24.4555 C   0  0  0  0  0  0  0  0  0  0  0  0
   -7.3687   -7.2592  -23.5119 C   0  0  0  0  0  0  0  0  0  0  0  0
   -6.5378   -6.9704  -22.2968 C   0  0  0  0  0  0  0  0  0  0  0  0
   -6.1475   -5.6396  -21.7253 C   0  0  0  0  0  0  0  0  0  0  0  0
   -6.4917   -4.2688  -22.2278 N   0  0  0  0  0  0  0  0  0  0  0  0
   -5.9440   -3.1253  -21.4263 C   0  0  0  0  0  0  0  0  0  0  0  0
   -5.1108   -3.3943  -20.2083 O   0  0  0  0  0  0  0  0  0  0  0  0
   -7.3112   -3.8903  -23.4257 C   0  0  0  0  0  0  0  0  0  0  0  0
   -7.9889   -4.7890  -24.4172 C   0  0  0  0  0  0  0  0  0  0  0  0
   -5.1436   -0.8769  -22.4529 C   0  0  0  0  0  0  0  0  0  0  0  0
   -4.8635   -0.9684  -23.9236 C   0  0  0  0  0  0  0  0  0  0  0  0
   -3.7777   -0.1324  -24.5338 N   0  0  0  0  0  0  0  0  0  0  0  0
   -2.9721    0.7951  -23.6732 C   0  0  0  0  0  0  0  0  0  0  0  0
   -3.2522    0.8866  -22.2023 C   0  0  0  0  0  0  0  0  0  0  0  0
   -2.4465    1.8141  -21.3418 C   0  0  0  0  0  0  0  0  0  0  0  0
   -2.7266    1.9056  -19.8710 C   0  0  0  0  0  0  0  0  0  0  0  0
   -3.8124    1.0696  -19.2609 C   0  0  0  0  0  0  0  0  0  0  0  0
   -4.6180    0.1421  -20.1215 C   0  0  0  0  0  0  0  0  0  0  0  0
   -4.3379    0.0506  -21.5922 C   0  0  0  0  0  0  0  0  0  0  0  0
  3  2  1  0  0  0
  3  4  1  0  0  0
  4  5  2  0  0  0
  5  6  1  0  0  0
  6  7  1  0  0  0
  7  8  1  0  0  0
  8  9  2  0  0  0
  8  1  1  0  0  0
  1 12  1  0  0  0
 12 13  2  0  0  0
 13 14  1  0  0  0
 14 15  2  0  0  0
 15 16  1  0  0  0
 16 17  2  0  0  0
 17 18  1  0  0  0
 18 19  2  0  0  0
 19 20  1  0  0  0
 20 21  2  0  0  0
  7 10  1  0  0  0
 10 11  1  0  0  0
 11  3  1  0  0  0
 21 12  1  0  0  0
 21 16  1  0  0  0
M  END
> <minimizedAffinity>
-6.22452

> <CNNscore>
0.4258639514

> <CNNaffinity>
4.6688604355

> <CNN_VS>
1.9882993698

> <CNNaffinity_variance>
0.1577907354

$$$$



 21 23  0  0  0  0  0  0  0  0999 V2000
   -8.0475    0.2275  -22.3964 C   0  0  0  0  0  0  0  0  0  0  0  0
   -2.0668    3.5627  -21.6516 C   0  0  0  0  0  0  0  0  0  0  0  0
   -3.1620    2.6240  -21.2401 C   0  0  0  0  0  0  0  0  0  0  0  0
   -2.9757    1.9481  -19.9140 C   0  0  0  0  0  0  0  0  0  0  0  0
   -3.8801    0.9665  -19.2294 C   0  0  0  0  0  0  0  0  0  0  0  0
   -5.1941    0.4185  -19.7017 C   0  0  0  0  0  0  0  0  0  0  0  0
   -5.9283    0.7167  -20.9753 N   0  0  0  0  0  0  0  0  0  0  0  0
   -7.2335    0.0003  -21.1572 C   0  0  0  0  0  0  0  0  0  0  0  0
   -7.7248   -0.9433  -20.0996 O   0  0  0  0  0  0  0  0  0  0  0  0
   -5.5298    1.6365  -22.0911 C   0  0  0  0  0  0  0  0  0  0  0  0
   -4.2987    2.4854  -22.2090 C   0  0  0  0  0  0  0  0  0  0  0  0
   -9.1887   -0.6895  -22.7228 C   0  0  0  0  0  0  0  0  0  0  0  0
   -8.9699   -2.1728  -22.7673 C   0  0  0  0  0  0  0  0  0  0  0  0
  -10.1111   -3.0899  -23.0937 N   0  0  0  0  0  0  0  0  0  0  0  0
  -11.4712   -2.5237  -23.3755 C   0  0  0  0  0  0  0  0  0  0  0  0
  -11.6902   -1.0404  -23.3309 C   0  0  0  0  0  0  0  0  0  0  0  0
  -13.0503   -0.4742  -23.6127 C   0  0  0  0  0  0  0  0  0  0  0  0
  -13.2692    1.0090  -23.5682 C   0  0  0  0  0  0  0  0  0  0  0  0
  -12.1279    1.9261  -23.2418 C   0  0  0  0  0  0  0  0  0  0  0  0
  -10.7678    1.3599  -22.9600 C   0  0  0  0  0  0  0  0  0  0  0  0
  -10.5489   -0.1233  -23.0046 C   0  0  0  0  0  0  0  0  0  0  0  0
  3  2  1  0  0  0
  3  4  1  0  0  0
  4  5  2  0  0  0
  5  6  1  0  0  0
  6  7  1  0  0  0
  7  8  1  0  0  0
  8  9  2  0  0  0
  8  1  1  0  0  0
  1 12  1  0  0  0
 12 13  2  0  0  0
 13 14  1  0  0  0
 14 15  2  0  0  0
 15 16  1  0  0  0
 16 17  2  0  0  0
 17 18  1  0  0  0
 18 19  2  0  0  0
 19 20  1  0  0  0
 20 21  2  0  0  0
  7 10  1  0  0  0
 10 11  1  0  0  0
 11  3  1  0  0  0
 21 12  1  0  0  0
 21 16  1  0  0  0
M  END
> <minimizedAffinity>
-6.60342

> <CNNscore>
0.2879068255

> <CNNaffinity>
4.5144128799

> <CNN_VS>
1.2997303009

> <CNNaffinity_variance>
0.2290444374

$$$$



 21 23  0  0  0  0  0  0  0  0999 V2000
   -8.7224   -1.4793  -23.8878 C   0  0  0  0  0  0  0  0  0  0  0  0
   -8.4515   -6.6445  -28.4368 C   0  0  0  0  0  0  0  0  0  0  0  0
   -8.1349   -5.9505  -27.1453 C   0  0  0  0  0  0  0  0  0  0  0  0
   -7.2558   -6.7103  -26.1967 C   0  0  0  0  0  0  0  0  0  0  0  0
   -6.7639   -6.2957  -24.8417 C   0  0  0  0  0  0  0  0  0  0  0  0
   -7.0297   -5.0190  -24.1005 C   0  0  0  0  0  0  0  0  0  0  0  0
   -7.8530   -3.8415  -24.5314 N   0  0  0  0  0  0  0  0  0  0  0  0
   -7.9250   -2.7053  -23.5546 C   0  0  0  0  0  0  0  0  0  0  0  0
   -7.1996   -2.7953  -22.2448 O   0  0  0  0  0  0  0  0  0  0  0  0
   -8.6139   -3.6499  -25.8097 C   0  0  0  0  0  0  0  0  0  0  0  0
   -8.7394   -4.5885  -26.9731 C   0  0  0  0  0  0  0  0  0  0  0  0
  -10.1836   -1.4214  -23.5541 C   0  0  0  0  0  0  0  0  0  0  0  0
  -10.9068   -2.6664  -23.1336 C   0  0  0  0  0  0  0  0  0  0  0  0
  -12.3681   -2.6085  -22.7999 N   0  0  0  0  0  0  0  0  0  0  0  0
  -13.1062   -1.3056  -22.8868 C   0  0  0  0  0  0  0  0  0  0  0  0
  -12.3830   -0.0605  -23.3073 C   0  0  0  0  0  0  0  0  0  0  0  0
  -13.1211    1.2424  -23.3941 C   0  0  0  0  0  0  0  0  0  0  0  0
  -12.3979    2.4875  -23.8147 C   0  0  0  0  0  0  0  0  0  0  0  0
  -10.9366    2.4296  -24.1483 C   0  0  0  0  0  0  0  0  0  0  0  0
  -10.1985    1.1266  -24.0615 C   0  0  0  0  0  0  0  0  0  0  0  0
  -10.9217   -0.1184  -23.6410 C   0  0  0  0  0  0  0  0  0  0  0  0
  3  2  1  0  0  0
  3  4  1  0  0  0
  4  5  2  0  0  0
  5  6  1  0  0  0
  6  7  1  0  0  0
  7  8  1  0  0  0
  8  9  2  0  0  0
  8  1  1  0  0  0
  1 12  1  0  0  0
 12 13  2  0  0  0
 13 14  1  0  0  0
 14 15  2  0  0  0
 15 16  1  0  0  0
 16 17  2  0  0  0
 17 18  1  0  0  0
 18 19  2  0  0  0
 19 20  1  0  0  0
 20 21  2  0  0  0
  7 10  1  0  0  0
 10 11  1  0  0  0
 11  3  1  0  0  0
 21 12  1  0  0  0
 21 16  1  0  0  0
M  END
> <minimizedAffinity>
-6.13982

> <CNNscore>
0.2814109027

> <CNNaffinity>
4.7190899849

> <CNN_VS>
1.3280034065

> <CNNaffinity_variance>
0.2676337361

$$$$



 21 23  0  0  0  0  0  0  0  0999 V2000
   -7.1444   -1.2620  -22.6518 C   0  0  0  0  0  0  0  0  0  0  0  0
   -4.9064   -6.0703  -27.0472 C   0  0  0  0  0  0  0  0  0  0  0  0
   -5.8525   -5.4758  -26.0466 C   0  0  0  0  0  0  0  0  0  0  0  0
   -7.0582   -6.3055  -25.7181 C   0  0  0  0  0  0  0  0  0  0  0  0
   -8.1771   -5.9945  -24.7686 C   0  0  0  0  0  0  0  0  0  0  0  0
   -8.3667   -4.7770  -23.9132 C   0  0  0  0  0  0  0  0  0  0  0  0
   -7.4841   -3.5697  -23.7960 N   0  0  0  0  0  0  0  0  0  0  0  0
   -7.9537   -2.5103  -22.8436 C   0  0  0  0  0  0  0  0  0  0  0  0
   -9.2327   -2.6992  -22.0829 O   0  0  0  0  0  0  0  0  0  0  0  0
   -6.1941   -3.2819  -24.5051 C   0  0  0  0  0  0  0  0  0  0  0  0
   -5.4680   -4.1301  -25.5068 C   0  0  0  0  0  0  0  0  0  0  0  0
   -6.6881   -0.8676  -21.2785 C   0  0  0  0  0  0  0  0  0  0  0  0
   -7.5162   -1.2276  -20.0808 C   0  0  0  0  0  0  0  0  0  0  0  0
   -7.0599   -0.8331  -18.7074 N   0  0  0  0  0  0  0  0  0  0  0  0
   -5.7754   -0.0786  -18.5317 C   0  0  0  0  0  0  0  0  0  0  0  0
   -4.9472    0.2814  -19.7294 C   0  0  0  0  0  0  0  0  0  0  0  0
   -3.6628    1.0359  -19.5538 C   0  0  0  0  0  0  0  0  0  0  0  0
   -2.8346    1.3959  -20.7515 C   0  0  0  0  0  0  0  0  0  0  0  0
   -3.2909    1.0014  -22.1248 C   0  0  0  0  0  0  0  0  0  0  0  0
   -4.5754    0.2470  -22.3005 C   0  0  0  0  0  0  0  0  0  0  0  0
   -5.4035   -0.1130  -21.1028 C   0  0  0  0  0  0  0  0  0  0  0  0
  3  2  1  0  0  0
  3  4  1  0  0  0
  4  5  2  0  0  0
  5  6  1  0  0  0
  6  7  1  0  0  0
  7  8  1  0  0  0
  8  9  2  0  0  0
  8  1  1  0  0  0
  1 12  1  0  0  0
 12 13  2  0  0  0
 13 14  1  0  0  0
 14 15  2  0  0  0
 15 16  1  0  0  0
 16 17  2  0  0  0
 17 18  1  0  0  0
 18 19  2  0  0  0
 19 20  1  0  0  0
 20 21  2  0  0  0
  7 10  1  0  0  0
 10 11  1  0  0  0
 11  3  1  0  0  0
 21 12  1  0  0  0
 21 16  1  0  0  0
M  END
> <minimizedAffinity>
-6.12894

> <CNNscore>
0.2714374363

> <CNNaffinity>
4.9024467468

> <CNN_VS>
1.3307075500

> <CNNaffinity_variance>
0.1297232509

$$$$
