


 35 40  0  0  0  0  0  0  0  0999 V2000
   -7.7924   -0.5820  -22.2053 O   0  0  0  0  0  0  0  0  0  0  0  0
   -7.2856   -1.9919  -22.1316 C   0  0  0  0  0  0  0  0  0  0  0  0
   -7.7786   -3.0181  -23.1082 N   0  0  0  0  0  0  0  0  0  0  0  0
   -7.2719   -4.4279  -23.0346 C   0  0  0  0  0  0  0  0  0  0  0  0
   -6.2011   -4.9330  -22.1135 C   0  0  0  0  0  0  0  0  0  0  0  0
   -6.0144   -6.3975  -22.3787 C   0  0  0  0  0  0  0  0  0  0  0  0
   -6.9697   -6.7976  -23.4638 C   0  0  0  0  0  0  0  0  0  0  0  0
   -7.7469   -5.5803  -23.8691 C   0  0  0  0  0  0  0  0  0  0  0  0
   -8.0405   -6.2926  -24.3849 N   0  0  0  0  0  0  0  0  0  0  0  0
   -8.2272   -4.8280  -24.1196 C   0  0  0  0  0  0  0  0  0  0  0  0
   -7.8017   -7.2820  -24.4508 H   0  0  0  0  0  0  0  0  0  0  0  0
   -8.7924   -7.1088  -25.3940 C   0  0  0  0  0  0  0  0  0  0  0  0
   -8.8547   -6.6614  -26.8243 C   0  0  0  0  0  0  0  0  0  0  0  0
   -9.7816   -5.7960  -27.6255 C   0  0  0  0  0  0  0  0  0  0  0  0
   -8.9429   -6.0286  -28.8471 O   0  0  0  0  0  0  0  0  0  0  0  0
   -8.0160   -6.8940  -28.0459 C   0  0  0  0  0  0  0  0  0  0  0  0
   -6.2857   -2.3755  -21.0814 C   0  0  0  0  0  0  0  0  0  0  0  0
   -5.8124   -1.3558  -20.0883 C   0  0  0  0  0  0  0  0  0  0  0  0
   -6.3546   -1.3627  -18.6898 C   0  0  0  0  0  0  0  0  0  0  0  0
   -5.8813   -0.3430  -17.6968 N   0  0  0  0  0  0  0  0  0  0  0  0
   -4.8657    0.6837  -18.1023 C   0  0  0  0  0  0  0  0  0  0  0  0
   -4.3233    0.6906  -19.5009 C   0  0  0  0  0  0  0  0  0  0  0  0
   -3.3077    1.7172  -19.9064 C   0  0  0  0  0  0  0  0  0  0  0  0
   -2.7654    1.7242  -21.3049 C   0  0  0  0  0  0  0  0  0  0  0  0
   -3.2388    0.7044  -22.2979 C   0  0  0  0  0  0  0  0  0  0  0  0
   -4.2544   -0.3222  -21.8924 C   0  0  0  0  0  0  0  0  0  0  0  0
   -4.7967   -0.3291  -20.4939 C   0  0  0  0  0  0  0  0  0  0  0  0
   -8.7785   -2.6344  -24.1586 C   0  0  0  0  0  0  0  0  0  0  0  0
  -10.0428   -1.9280  -23.7680 C   0  0  0  0  0  0  0  0  0  0  0  0
  -10.1873   -0.4559  -24.0179 C   0  0  0  0  0  0  0  0  0  0  0  0
  -11.4516    0.2505  -23.6274 C   0  0  0  0  0  0  0  0  0  0  0  0
  -12.5714   -0.5151  -22.9869 C   0  0  0  0  0  0  0  0  0  0  0  0
  -12.4268   -1.9870  -22.7371 C   0  0  0  0  0  0  0  0  0  0  0  0
  -13.5465   -2.7525  -22.0966 Cl  0  0  0  0  0  0  0  0  0  0  0  0
  -11.1625   -2.6934  -23.1276 C   0  0  0  0  0  0  0  0  0  0  0  0
  1  2  2  0  0  0
  2 17  1  0  0  0
 17 18  1  0  0  0
 18 19  2  0  0  0
 19 20  1  0  0  0
 20 21  2  0  0  0
 21 22  1  0  0  0
 22 23  2  0  0  0
 23 24  1  0  0  0
 24 25  2  0  0  0
 25 26  1  0  0  0
 26 27  2  0  0  0
  2  3  1  0  0  0
  3 28  1  0  0  0
 28 29  1  0  0  0
 29 30  2  0  0  0
 30 31  1  0  0  0
 31 32  2  0  0  0
 32 33  1  0  0  0
 33 34  1  0  0  0
 33 35  2  0  0  0
  4  3  1  0  0  0
  4  5  1  0  0  0
  5  6  1  0  0  0
  7  6  1  0  0  0
  7  8  1  0  0  0
  7  9  1  0  0  0
  9 12  1  0  0  0
 12 13  1  0  0  0
 13 14  1  0  0  0
 14 15  1  0  0  0
 15 16  1  0  0  0
  9 10  1  0  0  0
 27 18  1  0  0  0
 35 29  1  0  0  0
  8  4  1  0  0  0
 16 13  1  0  0  0
 27 22  1  0  0  0
 10  4  1  0  0  0
  9 11  1  0  0  0
M  CHG 1   9   1
M  END
> <minimizedAffinity>
-8.74325

> <CNNscore>
0.8631206155

> <CNNaffinity>
7.1104903221

> <CNN_VS>
6.1372108459

> <CNNaffinity_variance>
0.2037626505

$$$$



 35 40  0  0  0  0  0  0  0  0999 V2000
   -8.4915    0.1826  -21.2511 O   0  0  0  0  0  0  0  0  0  0  0  0
   -8.1162   -0.3057  -22.6189 C   0  0  0  0  0  0  0  0  0  0  0  0
   -7.0744   -1.3737  -22.7742 N   0  0  0  0  0  0  0  0  0  0  0  0
   -6.6990   -1.8621  -24.1419 C   0  0  0  0  0  0  0  0  0  0  0  0
   -5.7519   -1.1878  -25.0896 C   0  0  0  0  0  0  0  0  0  0  0  0
   -5.6724   -2.0194  -26.3354 C   0  0  0  0  0  0  0  0  0  0  0  0
   -6.5705   -3.2077  -26.1577 C   0  0  0  0  0  0  0  0  0  0  0  0
   -7.2050   -3.1104  -24.8020 C   0  0  0  0  0  0  0  0  0  0  0  0
   -7.5176   -3.8820  -25.2100 N   0  0  0  0  0  0  0  0  0  0  0  0
   -7.5971   -3.0503  -23.9641 C   0  0  0  0  0  0  0  0  0  0  0  0
   -7.3610   -4.3363  -26.1096 H   0  0  0  0  0  0  0  0  0  0  0  0
   -8.2557   -5.1629  -25.4636 C   0  0  0  0  0  0  0  0  0  0  0  0
   -8.4129   -5.6731  -26.8654 C   0  0  0  0  0  0  0  0  0  0  0  0
   -9.5777   -5.9487  -27.7693 C   0  0  0  0  0  0  0  0  0  0  0  0
   -8.6353   -6.3945  -28.8477 O   0  0  0  0  0  0  0  0  0  0  0  0
   -7.4705   -6.1189  -27.9438 C   0  0  0  0  0  0  0  0  0  0  0  0
   -8.7825    0.2739  -23.8312 C   0  0  0  0  0  0  0  0  0  0  0  0
  -10.2112    0.7250  -23.7582 C   0  0  0  0  0  0  0  0  0  0  0  0
  -10.5634    2.1521  -24.0570 C   0  0  0  0  0  0  0  0  0  0  0  0
  -11.9921    2.6032  -23.9840 N   0  0  0  0  0  0  0  0  0  0  0  0
  -13.0686    1.6272  -23.6121 C   0  0  0  0  0  0  0  0  0  0  0  0
  -12.7166    0.2000  -23.3133 C   0  0  0  0  0  0  0  0  0  0  0  0
  -13.7931   -0.7760  -22.9415 C   0  0  0  0  0  0  0  0  0  0  0  0
  -13.4410   -2.2031  -22.6427 C   0  0  0  0  0  0  0  0  0  0  0  0
  -12.0123   -2.6542  -22.7157 C   0  0  0  0  0  0  0  0  0  0  0  0
  -10.9357   -1.6782  -23.0876 C   0  0  0  0  0  0  0  0  0  0  0  0
  -11.2879   -0.2511  -23.3864 C   0  0  0  0  0  0  0  0  0  0  0  0
   -6.4080   -1.9534  -21.5617 C   0  0  0  0  0  0  0  0  0  0  0  0
   -5.7469   -1.0486  -20.5646 C   0  0  0  0  0  0  0  0  0  0  0  0
   -6.0250   -1.2159  -19.1001 C   0  0  0  0  0  0  0  0  0  0  0  0
   -5.3639   -0.3111  -18.1030 C   0  0  0  0  0  0  0  0  0  0  0  0
   -4.4247    0.7611  -18.5704 C   0  0  0  0  0  0  0  0  0  0  0  0
   -4.1467    0.9284  -20.0349 C   0  0  0  0  0  0  0  0  0  0  0  0
   -3.2075    2.0005  -20.5022 Cl  0  0  0  0  0  0  0  0  0  0  0  0
   -4.8078    0.0236  -21.0320 C   0  0  0  0  0  0  0  0  0  0  0  0
  1  2  2  0  0  0
  2 17  1  0  0  0
 17 18  1  0  0  0
 18 19  2  0  0  0
 19 20  1  0  0  0
 20 21  2  0  0  0
 21 22  1  0  0  0
 22 23  2  0  0  0
 23 24  1  0  0  0
 24 25  2  0  0  0
 25 26  1  0  0  0
 26 27  2  0  0  0
  2  3  1  0  0  0
  3 28  1  0  0  0
 28 29  1  0  0  0
 29 30  2  0  0  0
 30 31  1  0  0  0
 31 32  2  0  0  0
 32 33  1  0  0  0
 33 34  1  0  0  0
 33 35  2  0  0  0
  4  3  1  0  0  0
  4  5  1  0  0  0
  5  6  1  0  0  0
  7  6  1  0  0  0
  7  8  1  0  0  0
  7  9  1  0  0  0
  9 12  1  0  0  0
 12 13  1  0  0  0
 13 14  1  0  0  0
 14 15  1  0  0  0
 15 16  1  0  0  0
  9 10  1  0  0  0
 27 18  1  0  0  0
 35 29  1  0  0  0
  8  4  1  0  0  0
 16 13  1  0  0  0
 27 22  1  0  0  0
 10  4  1  0  0  0
  9 11  1  0  0  0
M  CHG 1   9   1
M  END
> <minimizedAffinity>
-8.01547

> <CNNscore>
0.4713340104

> <CNNaffinity>
6.3910636902

> <CNN_VS>
3.0123257637

> <CNNaffinity_variance>
0.0804017857

$$$$



 35 40  0  0  0  0  0  0  0  0999 V2000
   -5.1663   -4.1079  -21.2159 O   0  0  0  0  0  0  0  0  0  0  0  0
   -6.4161   -3.5413  -21.8218 C   0  0  0  0  0  0  0  0  0  0  0  0
   -7.4092   -4.4517  -22.4814 N   0  0  0  0  0  0  0  0  0  0  0  0
   -8.6590   -3.8853  -23.0872 C   0  0  0  0  0  0  0  0  0  0  0  0
   -9.5589   -2.8633  -22.4581 C   0  0  0  0  0  0  0  0  0  0  0  0
  -10.6844   -2.5877  -23.4106 C   0  0  0  0  0  0  0  0  0  0  0  0
  -10.4801   -3.4393  -24.6285 C   0  0  0  0  0  0  0  0  0  0  0  0
   -9.2283   -4.2412  -24.4286 C   0  0  0  0  0  0  0  0  0  0  0  0
   -9.5802   -4.4612  -25.2576 N   0  0  0  0  0  0  0  0  0  0  0  0
   -8.4546   -4.7368  -24.3050 C   0  0  0  0  0  0  0  0  0  0  0  0
  -10.3979   -4.1714  -25.7940 H   0  0  0  0  0  0  0  0  0  0  0  0
   -9.7721   -5.0961  -26.6030 C   0  0  0  0  0  0  0  0  0  0  0  0
   -8.5805   -5.4449  -27.4446 C   0  0  0  0  0  0  0  0  0  0  0  0
   -8.2458   -6.5486  -28.4036 C   0  0  0  0  0  0  0  0  0  0  0  0
   -6.8954   -5.9382  -28.6349 O   0  0  0  0  0  0  0  0  0  0  0  0
   -7.2300   -4.8344  -27.6759 C   0  0  0  0  0  0  0  0  0  0  0  0
   -6.6729   -2.0645  -21.7680 C   0  0  0  0  0  0  0  0  0  0  0  0
   -6.1706   -1.2577  -20.6075 C   0  0  0  0  0  0  0  0  0  0  0  0
   -6.8417   -1.3685  -19.2706 C   0  0  0  0  0  0  0  0  0  0  0  0
   -6.3394   -0.5617  -18.1101 N   0  0  0  0  0  0  0  0  0  0  0  0
   -5.1661    0.3560  -18.2865 C   0  0  0  0  0  0  0  0  0  0  0  0
   -4.4950    0.4669  -19.6235 C   0  0  0  0  0  0  0  0  0  0  0  0
   -3.3217    1.3846  -19.7999 C   0  0  0  0  0  0  0  0  0  0  0  0
   -2.6507    1.4954  -21.1368 C   0  0  0  0  0  0  0  0  0  0  0  0
   -3.1529    0.6886  -22.2973 C   0  0  0  0  0  0  0  0  0  0  0  0
   -4.3262   -0.2291  -22.1209 C   0  0  0  0  0  0  0  0  0  0  0  0
   -4.9973   -0.3399  -20.7840 C   0  0  0  0  0  0  0  0  0  0  0  0
   -7.1524   -5.9286  -22.5351 C   0  0  0  0  0  0  0  0  0  0  0  0
   -6.0584   -6.4684  -23.4080 C   0  0  0  0  0  0  0  0  0  0  0  0
   -6.3548   -6.8624  -24.8247 C   0  0  0  0  0  0  0  0  0  0  0  0
   -5.2608   -7.4021  -25.6976 C   0  0  0  0  0  0  0  0  0  0  0  0
   -3.8704   -7.5478  -25.1538 C   0  0  0  0  0  0  0  0  0  0  0  0
   -3.5741   -7.1538  -23.7372 C   0  0  0  0  0  0  0  0  0  0  0  0
   -2.1837   -7.2995  -23.1934 Cl  0  0  0  0  0  0  0  0  0  0  0  0
   -4.6680   -6.6141  -22.8643 C   0  0  0  0  0  0  0  0  0  0  0  0
  1  2  2  0  0  0
  2 17  1  0  0  0
 17 18  1  0  0  0
 18 19  2  0  0  0
 19 20  1  0  0  0
 20 21  2  0  0  0
 21 22  1  0  0  0
 22 23  2  0  0  0
 23 24  1  0  0  0
 24 25  2  0  0  0
 25 26  1  0  0  0
 26 27  2  0  0  0
  2  3  1  0  0  0
  3 28  1  0  0  0
 28 29  1  0  0  0
 29 30  2  0  0  0
 30 31  1  0  0  0
 31 32  2  0  0  0
 32 33  1  0  0  0
 33 34  1  0  0  0
 33 35  2  0  0  0
  4  3  1  0  0  0
  4  5  1  0  0  0
  5  6  1  0  0  0
  7  6  1  0  0  0
  7  8  1  0  0  0
  7  9  1  0  0  0
  9 12  1  0  0  0
 12 13  1  0  0  0
 13 14  1  0  0  0
 14 15  1  0  0  0
 15 16  1  0  0  0
  9 10  1  0  0  0
 27 18  1  0  0  0
 35 29  1  0  0  0
  8  4  1  0  0  0
 16 13  1  0  0  0
 27 22  1  0  0  0
 10  4  1  0  0  0
  9 11  1  0  0  0
M  CHG 1   9   1
M  END
> <minimizedAffinity>
-8.29006

> <CNNscore>
0.4527382851

> <CNNaffinity>
6.3927879333

> <CNN_VS>
2.8942599297

> <CNNaffinity_variance>
0.4632961750

$$$$



 35 40  0  0  0  0  0  0  0  0999 V2000
   -8.8108    1.0922  -21.7006 O   0  0  0  0  0  0  0  0  0  0  0  0
   -8.1223   -0.0192  -22.4361 C   0  0  0  0  0  0  0  0  0  0  0  0
   -8.2683   -0.1370  -23.9244 N   0  0  0  0  0  0  0  0  0  0  0  0
   -7.5798   -1.2483  -24.6599 C   0  0  0  0  0  0  0  0  0  0  0  0
   -6.1404   -1.2677  -25.0811 C   0  0  0  0  0  0  0  0  0  0  0  0
   -5.8809   -2.5667  -25.7849 C   0  0  0  0  0  0  0  0  0  0  0  0
   -7.1600   -3.3501  -25.7986 C   0  0  0  0  0  0  0  0  0  0  0  0
   -8.2100   -2.5352  -25.1033 C   0  0  0  0  0  0  0  0  0  0  0  0
   -8.5995   -3.3307  -25.3773 N   0  0  0  0  0  0  0  0  0  0  0  0
   -8.8589   -2.0316  -24.6735 C   0  0  0  0  0  0  0  0  0  0  0  0
   -8.2731   -4.1604  -25.8727 H   0  0  0  0  0  0  0  0  0  0  0  0
   -9.6032   -4.4191  -25.6176 C   0  0  0  0  0  0  0  0  0  0  0  0
   -9.1937   -5.6725  -26.3327 C   0  0  0  0  0  0  0  0  0  0  0  0
   -8.9364   -7.0920  -25.9221 C   0  0  0  0  0  0  0  0  0  0  0  0
   -8.6146   -7.4450  -27.3440 O   0  0  0  0  0  0  0  0  0  0  0  0
   -8.8719   -6.0254  -27.7546 C   0  0  0  0  0  0  0  0  0  0  0  0
   -7.2879   -1.0127  -21.6834 C   0  0  0  0  0  0  0  0  0  0  0  0
   -6.4773   -0.5691  -20.5019 C   0  0  0  0  0  0  0  0  0  0  0  0
   -6.9277   -0.9104  -19.1125 C   0  0  0  0  0  0  0  0  0  0  0  0
   -6.1171   -0.4668  -17.9309 N   0  0  0  0  0  0  0  0  0  0  0  0
   -4.8559    0.3182  -18.1388 C   0  0  0  0  0  0  0  0  0  0  0  0
   -4.4054    0.6596  -19.5283 C   0  0  0  0  0  0  0  0  0  0  0  0
   -3.1443    1.4446  -19.7362 C   0  0  0  0  0  0  0  0  0  0  0  0
   -2.6938    1.7860  -21.1256 C   0  0  0  0  0  0  0  0  0  0  0  0
   -3.5045    1.3423  -22.3071 C   0  0  0  0  0  0  0  0  0  0  0  0
   -4.7656    0.5573  -22.0992 C   0  0  0  0  0  0  0  0  0  0  0  0
   -5.2161    0.2160  -20.7098 C   0  0  0  0  0  0  0  0  0  0  0  0
   -9.1027    0.8567  -24.6771 C   0  0  0  0  0  0  0  0  0  0  0  0
  -10.4845    1.1910  -24.1985 C   0  0  0  0  0  0  0  0  0  0  0  0
  -10.8758    2.6222  -23.9776 C   0  0  0  0  0  0  0  0  0  0  0  0
  -12.2576    2.9565  -23.4991 C   0  0  0  0  0  0  0  0  0  0  0  0
  -13.2480    1.8597  -23.2415 C   0  0  0  0  0  0  0  0  0  0  0  0
  -12.8566    0.4287  -23.4624 C   0  0  0  0  0  0  0  0  0  0  0  0
  -13.8469   -0.6680  -23.2048 Cl  0  0  0  0  0  0  0  0  0  0  0  0
  -11.4748    0.0943  -23.9409 C   0  0  0  0  0  0  0  0  0  0  0  0
  1  2  2  0  0  0
  2 17  1  0  0  0
 17 18  1  0  0  0
 18 19  2  0  0  0
 19 20  1  0  0  0
 20 21  2  0  0  0
 21 22  1  0  0  0
 22 23  2  0  0  0
 23 24  1  0  0  0
 24 25  2  0  0  0
 25 26  1  0  0  0
 26 27  2  0  0  0
  2  3  1  0  0  0
  3 28  1  0  0  0
 28 29  1  0  0  0
 29 30  2  0  0  0
 30 31  1  0  0  0
 31 32  2  0  0  0
 32 33  1  0  0  0
 33 34  1  0  0  0
 33 35  2  0  0  0
  4  3  1  0  0  0
  4  5  1  0  0  0
  5  6  1  0  0  0
  7  6  1  0  0  0
  7  8  1  0  0  0
  7  9  1  0  0  0
  9 12  1  0  0  0
 12 13  1  0  0  0
 13 14  1  0  0  0
 14 15  1  0  0  0
 15 16  1  0  0  0
  9 10  1  0  0  0
 27 18  1  0  0  0
 35 29  1  0  0  0
  8  4  1  0  0  0
 16 13  1  0  0  0
 27 22  1  0  0  0
 10  4  1  0  0  0
  9 11  1  0  0  0
M  CHG 1   9   1
M  END
> <minimizedAffinity>
-8.18362

> <CNNscore>
0.4148390293

> <CNNaffinity>
6.2544488907

> <CNN_VS>
2.5945894718

> <CNNaffinity_variance>
0.2957157493

$$$$



 35 40  0  0  0  0  0  0  0  0999 V2000
   -5.2346   -4.1889  -20.6761 O   0  0  0  0  0  0  0  0  0  0  0  0
   -6.0494   -3.5265  -21.7473 C   0  0  0  0  0  0  0  0  0  0  0  0
   -6.7546   -4.3596  -22.7762 N   0  0  0  0  0  0  0  0  0  0  0  0
   -7.5694   -3.6974  -23.8474 C   0  0  0  0  0  0  0  0  0  0  0  0
   -7.0906   -3.3348  -25.2219 C   0  0  0  0  0  0  0  0  0  0  0  0
   -8.2313   -2.6947  -25.9562 C   0  0  0  0  0  0  0  0  0  0  0  0
   -9.4150   -2.6617  -25.0355 C   0  0  0  0  0  0  0  0  0  0  0  0
   -9.0059   -3.2813  -23.7322 C   0  0  0  0  0  0  0  0  0  0  0  0
   -9.8938   -3.0242  -23.6610 N   0  0  0  0  0  0  0  0  0  0  0  0
   -8.7530   -3.6643  -22.9267 C   0  0  0  0  0  0  0  0  0  0  0  0
  -10.5669   -2.5759  -24.2826 H   0  0  0  0  0  0  0  0  0  0  0  0
  -11.2713   -2.7881  -23.1165 C   0  0  0  0  0  0  0  0  0  0  0  0
  -11.8959   -1.4283  -23.2199 C   0  0  0  0  0  0  0  0  0  0  0  0
  -11.3737   -0.0295  -23.3643 C   0  0  0  0  0  0  0  0  0  0  0  0
  -12.7790    0.4948  -23.3661 O   0  0  0  0  0  0  0  0  0  0  0  0
  -13.3012   -0.9039  -23.2217 C   0  0  0  0  0  0  0  0  0  0  0  0
   -6.1589   -2.0312  -21.7896 C   0  0  0  0  0  0  0  0  0  0  0  0
   -5.7758   -1.2168  -20.5896 C   0  0  0  0  0  0  0  0  0  0  0  0
   -6.4886   -1.4213  -19.2858 C   0  0  0  0  0  0  0  0  0  0  0  0
   -6.1055   -0.6069  -18.0858 N   0  0  0  0  0  0  0  0  0  0  0  0
   -5.0095    0.4118  -18.1896 C   0  0  0  0  0  0  0  0  0  0  0  0
   -4.2966    0.6163  -19.4934 C   0  0  0  0  0  0  0  0  0  0  0  0
   -3.2006    1.6351  -19.5972 C   0  0  0  0  0  0  0  0  0  0  0  0
   -2.4877    1.8396  -20.9011 C   0  0  0  0  0  0  0  0  0  0  0  0
   -2.8709    1.0252  -22.1011 C   0  0  0  0  0  0  0  0  0  0  0  0
   -3.9669    0.0064  -21.9973 C   0  0  0  0  0  0  0  0  0  0  0  0
   -4.6797   -0.1980  -20.6935 C   0  0  0  0  0  0  0  0  0  0  0  0
   -6.6451   -5.8551  -22.7339 C   0  0  0  0  0  0  0  0  0  0  0  0
   -5.5986   -6.5538  -23.5504 C   0  0  0  0  0  0  0  0  0  0  0  0
   -5.9205   -7.0248  -24.9377 C   0  0  0  0  0  0  0  0  0  0  0  0
   -4.8741   -7.7235  -25.7542 C   0  0  0  0  0  0  0  0  0  0  0  0
   -3.5057   -7.9513  -25.1834 C   0  0  0  0  0  0  0  0  0  0  0  0
   -3.1838   -7.4803  -23.7962 C   0  0  0  0  0  0  0  0  0  0  0  0
   -1.8155   -7.7081  -23.2255 Cl  0  0  0  0  0  0  0  0  0  0  0  0
   -4.2303   -6.7816  -22.9797 C   0  0  0  0  0  0  0  0  0  0  0  0
  1  2  2  0  0  0
  2 17  1  0  0  0
 17 18  1  0  0  0
 18 19  2  0  0  0
 19 20  1  0  0  0
 20 21  2  0  0  0
 21 22  1  0  0  0
 22 23  2  0  0  0
 23 24  1  0  0  0
 24 25  2  0  0  0
 25 26  1  0  0  0
 26 27  2  0  0  0
  2  3  1  0  0  0
  3 28  1  0  0  0
 28 29  1  0  0  0
 29 30  2  0  0  0
 30 31  1  0  0  0
 31 32  2  0  0  0
 32 33  1  0  0  0
 33 34  1  0  0  0
 33 35  2  0  0  0
  4  3  1  0  0  0
  4  5  1  0  0  0
  5  6  1  0  0  0
  7  6  1  0  0  0
  7  8  1  0  0  0
  7  9  1  0  0  0
  9 12  1  0  0  0
 12 13  1  0  0  0
 13 14  1  0  0  0
 14 15  1  0  0  0
 15 16  1  0  0  0
  9 10  1  0  0  0
 27 18  1  0  0  0
 35 29  1  0  0  0
  8  4  1  0  0  0
 16 13  1  0  0  0
 27 22  1  0  0  0
 10  4  1  0  0  0
  9 11  1  0  0  0
M  CHG 1   9   1
M  END
> <minimizedAffinity>
-8.21743

> <CNNscore>
0.4014990032

> <CNNaffinity>
6.3485527039

> <CNN_VS>
2.5489375591

> <CNNaffinity_variance>
0.5579857230

$$$$



 35 40  0  0  0  0  0  0  0  0999 V2000
   -8.2464    0.7418  -21.3306 O   0  0  0  0  0  0  0  0  0  0  0  0
   -7.9939    0.0209  -22.6216 C   0  0  0  0  0  0  0  0  0  0  0  0
   -6.9488   -1.0530  -22.6889 N   0  0  0  0  0  0  0  0  0  0  0  0
   -6.6963   -1.7739  -23.9798 C   0  0  0  0  0  0  0  0  0  0  0  0
   -6.3196   -1.1386  -25.2854 C   0  0  0  0  0  0  0  0  0  0  0  0
   -6.1667   -2.2288  -26.3043 C   0  0  0  0  0  0  0  0  0  0  0  0
   -6.4489   -3.5379  -25.6284 C   0  0  0  0  0  0  0  0  0  0  0  0
   -6.7762   -3.2567  -24.1918 C   0  0  0  0  0  0  0  0  0  0  0  0
   -6.8256   -4.1731  -24.3229 N   0  0  0  0  0  0  0  0  0  0  0  0
   -6.9785   -3.0829  -23.3040 C   0  0  0  0  0  0  0  0  0  0  0  0
   -6.6860   -4.7966  -25.1180 H   0  0  0  0  0  0  0  0  0  0  0  0
   -7.0160   -5.6409  -24.0791 C   0  0  0  0  0  0  0  0  0  0  0  0
   -6.1231   -6.6361  -24.7589 C   0  0  0  0  0  0  0  0  0  0  0  0
   -6.0365   -7.2131  -26.1407 C   0  0  0  0  0  0  0  0  0  0  0  0
   -4.8603   -8.0436  -25.7203 O   0  0  0  0  0  0  0  0  0  0  0  0
   -4.9469   -7.4667  -24.3384 C   0  0  0  0  0  0  0  0  0  0  0  0
   -8.7866    0.3738  -23.8451 C   0  0  0  0  0  0  0  0  0  0  0  0
  -10.2294    0.7637  -23.7174 C   0  0  0  0  0  0  0  0  0  0  0  0
  -10.6424    2.1900  -23.9292 C   0  0  0  0  0  0  0  0  0  0  0  0
  -12.0852    2.5799  -23.8015 N   0  0  0  0  0  0  0  0  0  0  0  0
  -13.1150    1.5435  -23.4620 C   0  0  0  0  0  0  0  0  0  0  0  0
  -12.7020    0.1170  -23.2502 C   0  0  0  0  0  0  0  0  0  0  0  0
  -13.7318   -0.9194  -22.9106 C   0  0  0  0  0  0  0  0  0  0  0  0
  -13.3187   -2.3457  -22.6988 C   0  0  0  0  0  0  0  0  0  0  0  0
  -11.8759   -2.7356  -22.8265 C   0  0  0  0  0  0  0  0  0  0  0  0
  -10.8461   -1.6992  -23.1660 C   0  0  0  0  0  0  0  0  0  0  0  0
  -11.2592   -0.2729  -23.3779 C   0  0  0  0  0  0  0  0  0  0  0  0
   -6.1561   -1.4058  -21.4653 C   0  0  0  0  0  0  0  0  0  0  0  0
   -5.1551   -0.4341  -20.9142 C   0  0  0  0  0  0  0  0  0  0  0  0
   -5.2119   -0.0378  -19.4685 C   0  0  0  0  0  0  0  0  0  0  0  0
   -4.2108    0.9339  -18.9174 C   0  0  0  0  0  0  0  0  0  0  0  0
   -3.1530    1.5092  -19.8119 C   0  0  0  0  0  0  0  0  0  0  0  0
   -3.0962    1.1128  -21.2574 C   0  0  0  0  0  0  0  0  0  0  0  0
   -2.0384    1.6882  -22.1518 Cl  0  0  0  0  0  0  0  0  0  0  0  0
   -4.0973    0.1412  -21.8086 C   0  0  0  0  0  0  0  0  0  0  0  0
  1  2  2  0  0  0
  2 17  1  0  0  0
 17 18  1  0  0  0
 18 19  2  0  0  0
 19 20  1  0  0  0
 20 21  2  0  0  0
 21 22  1  0  0  0
 22 23  2  0  0  0
 23 24  1  0  0  0
 24 25  2  0  0  0
 25 26  1  0  0  0
 26 27  2  0  0  0
  2  3  1  0  0  0
  3 28  1  0  0  0
 28 29  1  0  0  0
 29 30  2  0  0  0
 30 31  1  0  0  0
 31 32  2  0  0  0
 32 33  1  0  0  0
 33 34  1  0  0  0
 33 35  2  0  0  0
  4  3  1  0  0  0
  4  5  1  0  0  0
  5  6  1  0  0  0
  7  6  1  0  0  0
  7  8  1  0  0  0
  7  9  1  0  0  0
  9 12  1  0  0  0
 12 13  1  0  0  0
 13 14  1  0  0  0
 14 15  1  0  0  0
 15 16  1  0  0  0
  9 10  1  0  0  0
 27 18  1  0  0  0
 35 29  1  0  0  0
  8  4  1  0  0  0
 16 13  1  0  0  0
 27 22  1  0  0  0
 10  4  1  0  0  0
  9 11  1  0  0  0
M  CHG 1   9   1
M  END
> <minimizedAffinity>
-7.40012

> <CNNscore>
0.3736115098

> <CNNaffinity>
6.2561764717

> <CNN_VS>
2.3373794556

> <CNNaffinity_variance>
0.0262305476

$$$$



 35 40  0  0  0  0  0  0  0  0999 V2000
   -8.5621    0.4507  -21.2036 O   0  0  0  0  0  0  0  0  0  0  0  0
   -8.3636   -0.7789  -22.0396 C   0  0  0  0  0  0  0  0  0  0  0  0
   -7.3780   -1.8255  -21.6119 N   0  0  0  0  0  0  0  0  0  0  0  0
   -7.1795   -3.0551  -22.4478 C   0  0  0  0  0  0  0  0  0  0  0  0
   -5.9245   -3.8726  -22.5294 C   0  0  0  0  0  0  0  0  0  0  0  0
   -6.1705   -5.0058  -23.4809 C   0  0  0  0  0  0  0  0  0  0  0  0
   -7.5776   -4.8886  -23.9873 C   0  0  0  0  0  0  0  0  0  0  0  0
   -8.2012   -3.6830  -23.3488 C   0  0  0  0  0  0  0  0  0  0  0  0
   -8.8326   -4.0712  -23.9057 N   0  0  0  0  0  0  0  0  0  0  0  0
   -8.5865   -2.9379  -22.9542 C   0  0  0  0  0  0  0  0  0  0  0  0
   -8.8490   -4.8845  -24.5210 H   0  0  0  0  0  0  0  0  0  0  0  0
  -10.1094   -4.3397  -24.6456 C   0  0  0  0  0  0  0  0  0  0  0  0
  -10.0687   -4.9536  -26.0136 C   0  0  0  0  0  0  0  0  0  0  0  0
  -10.5119   -6.2594  -26.6039 C   0  0  0  0  0  0  0  0  0  0  0  0
  -10.0110   -5.8218  -27.9483 O   0  0  0  0  0  0  0  0  0  0  0  0
   -9.5678   -4.5160  -27.3581 C   0  0  0  0  0  0  0  0  0  0  0  0
   -9.1509   -0.9618  -23.3032 C   0  0  0  0  0  0  0  0  0  0  0  0
  -10.5527   -0.4362  -23.3963 C   0  0  0  0  0  0  0  0  0  0  0  0
  -11.7138   -1.3421  -23.1116 C   0  0  0  0  0  0  0  0  0  0  0  0
  -13.1156   -0.8165  -23.2047 N   0  0  0  0  0  0  0  0  0  0  0  0
  -13.3563    0.6151  -23.5824 C   0  0  0  0  0  0  0  0  0  0  0  0
  -12.1952    1.5211  -23.8671 C   0  0  0  0  0  0  0  0  0  0  0  0
  -12.4359    2.9526  -24.2448 C   0  0  0  0  0  0  0  0  0  0  0  0
  -11.2747    3.8585  -24.5295 C   0  0  0  0  0  0  0  0  0  0  0  0
   -9.8729    3.3329  -24.4364 C   0  0  0  0  0  0  0  0  0  0  0  0
   -9.6322    1.9014  -24.0587 C   0  0  0  0  0  0  0  0  0  0  0  0
  -10.7933    0.9955  -23.7740 C   0  0  0  0  0  0  0  0  0  0  0  0
   -6.5907   -1.6426  -20.3482 C   0  0  0  0  0  0  0  0  0  0  0  0
   -5.4517   -0.6673  -20.3087 C   0  0  0  0  0  0  0  0  0  0  0  0
   -5.0897    0.0113  -19.0209 C   0  0  0  0  0  0  0  0  0  0  0  0
   -3.9507    0.9866  -18.9814 C   0  0  0  0  0  0  0  0  0  0  0  0
   -3.1737    1.2831  -20.2298 C   0  0  0  0  0  0  0  0  0  0  0  0
   -3.5357    0.6045  -21.5175 C   0  0  0  0  0  0  0  0  0  0  0  0
   -2.7586    0.9011  -22.7658 Cl  0  0  0  0  0  0  0  0  0  0  0  0
   -4.6747   -0.3707  -21.5570 C   0  0  0  0  0  0  0  0  0  0  0  0
  1  2  2  0  0  0
  2 17  1  0  0  0
 17 18  1  0  0  0
 18 19  2  0  0  0
 19 20  1  0  0  0
 20 21  2  0  0  0
 21 22  1  0  0  0
 22 23  2  0  0  0
 23 24  1  0  0  0
 24 25  2  0  0  0
 25 26  1  0  0  0
 26 27  2  0  0  0
  2  3  1  0  0  0
  3 28  1  0  0  0
 28 29  1  0  0  0
 29 30  2  0  0  0
 30 31  1  0  0  0
 31 32  2  0  0  0
 32 33  1  0  0  0
 33 34  1  0  0  0
 33 35  2  0  0  0
  4  3  1  0  0  0
  4  5  1  0  0  0
  5  6  1  0  0  0
  7  6  1  0  0  0
  7  8  1  0  0  0
  7  9  1  0  0  0
  9 12  1  0  0  0
 12 13  1  0  0  0
 13 14  1  0  0  0
 14 15  1  0  0  0
 15 16  1  0  0  0
  9 10  1  0  0  0
 27 18  1  0  0  0
 35 29  1  0  0  0
  8  4  1  0  0  0
 16 13  1  0  0  0
 27 22  1  0  0  0
 10  4  1  0  0  0
  9 11  1  0  0  0
M  CHG 1   9   1
M  END
> <minimizedAffinity>
-7.70123

> <CNNscore>
0.3720166087

> <CNNaffinity>
6.4036321640

> <CNN_VS>
2.3822574615

> <CNNaffinity_variance>
0.2722351551

$$$$



 35 40  0  0  0  0  0  0  0  0999 V2000
   -9.0346    0.9155  -21.5659 O   0  0  0  0  0  0  0  0  0  0  0  0
   -9.4388   -0.1202  -22.5730 C   0  0  0  0  0  0  0  0  0  0  0  0
   -9.0828   -1.5604  -22.3518 N   0  0  0  0  0  0  0  0  0  0  0  0
   -9.4870   -2.5961  -23.3587 C   0  0  0  0  0  0  0  0  0  0  0  0
  -10.7978   -2.6548  -24.0856 C   0  0  0  0  0  0  0  0  0  0  0  0
  -10.7722   -3.8498  -24.9918 C   0  0  0  0  0  0  0  0  0  0  0  0
   -9.4456   -4.5298  -24.8249 C   0  0  0  0  0  0  0  0  0  0  0  0
   -8.6513   -3.7549  -23.8157 C   0  0  0  0  0  0  0  0  0  0  0  0
   -8.1348   -4.4711  -24.0981 N   0  0  0  0  0  0  0  0  0  0  0  0
   -8.1604   -3.2760  -23.1919 C   0  0  0  0  0  0  0  0  0  0  0  0
   -8.2652   -5.2390  -24.7566 H   0  0  0  0  0  0  0  0  0  0  0  0
   -6.9981   -5.4379  -24.2506 C   0  0  0  0  0  0  0  0  0  0  0  0
   -6.4403   -6.1358  -23.0458 C   0  0  0  0  0  0  0  0  0  0  0  0
   -5.6420   -5.7113  -21.8490 C   0  0  0  0  0  0  0  0  0  0  0  0
   -5.6514   -7.1229  -21.3419 O   0  0  0  0  0  0  0  0  0  0  0  0
   -6.4497   -7.5475  -22.5387 C   0  0  0  0  0  0  0  0  0  0  0  0
  -10.1989    0.2844  -23.8011 C   0  0  0  0  0  0  0  0  0  0  0  0
  -11.2611    1.3398  -23.7120 C   0  0  0  0  0  0  0  0  0  0  0  0
  -12.6718    0.9575  -23.3750 C   0  0  0  0  0  0  0  0  0  0  0  0
  -13.7340    2.0129  -23.2859 N   0  0  0  0  0  0  0  0  0  0  0  0
  -13.3855    3.4506  -23.5339 C   0  0  0  0  0  0  0  0  0  0  0  0
  -11.9747    3.8329  -23.8709 C   0  0  0  0  0  0  0  0  0  0  0  0
  -11.6261    5.2706  -24.1189 C   0  0  0  0  0  0  0  0  0  0  0  0
  -10.2154    5.6529  -24.4559 C   0  0  0  0  0  0  0  0  0  0  0  0
   -9.1532    4.5976  -24.5450 C   0  0  0  0  0  0  0  0  0  0  0  0
   -9.5018    3.1599  -24.2971 C   0  0  0  0  0  0  0  0  0  0  0  0
  -10.9125    2.7776  -23.9600 C   0  0  0  0  0  0  0  0  0  0  0  0
   -8.3227   -1.9650  -21.1235 C   0  0  0  0  0  0  0  0  0  0  0  0
   -7.0388   -1.2725  -20.7740 C   0  0  0  0  0  0  0  0  0  0  0  0
   -5.9977   -1.0453  -21.8297 C   0  0  0  0  0  0  0  0  0  0  0  0
   -4.7139   -0.3527  -21.4802 C   0  0  0  0  0  0  0  0  0  0  0  0
   -4.4712    0.1127  -20.0750 C   0  0  0  0  0  0  0  0  0  0  0  0
   -5.5123   -0.1146  -19.0193 C   0  0  0  0  0  0  0  0  0  0  0  0
   -5.2696    0.3508  -17.6142 Cl  0  0  0  0  0  0  0  0  0  0  0  0
   -6.7961   -0.8071  -19.3688 C   0  0  0  0  0  0  0  0  0  0  0  0
  1  2  2  0  0  0
  2 17  1  0  0  0
 17 18  1  0  0  0
 18 19  2  0  0  0
 19 20  1  0  0  0
 20 21  2  0  0  0
 21 22  1  0  0  0
 22 23  2  0  0  0
 23 24  1  0  0  0
 24 25  2  0  0  0
 25 26  1  0  0  0
 26 27  2  0  0  0
  2  3  1  0  0  0
  3 28  1  0  0  0
 28 29  1  0  0  0
 29 30  2  0  0  0
 30 31  1  0  0  0
 31 32  2  0  0  0
 32 33  1  0  0  0
 33 34  1  0  0  0
 33 35  2  0  0  0
  4  3  1  0  0  0
  4  5  1  0  0  0
  5  6  1  0  0  0
  7  6  1  0  0  0
  7  8  1  0  0  0
  7  9  1  0  0  0
  9 12  1  0  0  0
 12 13  1  0  0  0
 13 14  1  0  0  0
 14 15  1  0  0  0
 15 16  1  0  0  0
  9 10  1  0  0  0
 27 18  1  0  0  0
 35 29  1  0  0  0
  8  4  1  0  0  0
 16 13  1  0  0  0
 27 22  1  0  0  0
 10  4  1  0  0  0
  9 11  1  0  0  0
M  CHG 1   9   1
M  END
> <minimizedAffinity>
-8.55768

> <CNNscore>
0.3115344346

> <CNNaffinity>
6.1242694855

> <CNN_VS>
1.9079208374

> <CNNaffinity_variance>
0.7052849531

$$$$



 35 40  0  0  0  0  0  0  0  0999 V2000
   -8.9927    0.8531  -21.5470 O   0  0  0  0  0  0  0  0  0  0  0  0
   -9.4121   -0.1792  -22.5514 C   0  0  0  0  0  0  0  0  0  0  0  0
   -9.0485   -1.6195  -22.3430 N   0  0  0  0  0  0  0  0  0  0  0  0
   -9.4678   -2.6517  -23.3473 C   0  0  0  0  0  0  0  0  0  0  0  0
  -10.7194   -2.6206  -24.1735 C   0  0  0  0  0  0  0  0  0  0  0  0
  -10.7343   -3.8460  -25.0386 C   0  0  0  0  0  0  0  0  0  0  0  0
   -9.4918   -4.6343  -24.7470 C   0  0  0  0  0  0  0  0  0  0  0  0
   -8.7092   -3.8962  -23.7018 C   0  0  0  0  0  0  0  0  0  0  0  0
   -8.2403   -4.6654  -23.9208 N   0  0  0  0  0  0  0  0  0  0  0  0
   -8.2255   -3.4400  -23.0557 C   0  0  0  0  0  0  0  0  0  0  0  0
   -8.3898   -5.4425  -24.5643 H   0  0  0  0  0  0  0  0  0  0  0  0
   -7.1883   -5.7341  -23.9539 C   0  0  0  0  0  0  0  0  0  0  0  0
   -6.8499   -6.4137  -25.2476 C   0  0  0  0  0  0  0  0  0  0  0  0
   -7.5671   -6.6418  -26.5452 C   0  0  0  0  0  0  0  0  0  0  0  0
   -6.3714   -7.3747  -27.0772 O   0  0  0  0  0  0  0  0  0  0  0  0
   -5.6543   -7.1466  -25.7796 C   0  0  0  0  0  0  0  0  0  0  0  0
  -10.1949    0.2289  -23.7641 C   0  0  0  0  0  0  0  0  0  0  0  0
  -11.2338    1.3057  -23.6588 C   0  0  0  0  0  0  0  0  0  0  0  0
  -12.6561    0.9474  -23.3449 C   0  0  0  0  0  0  0  0  0  0  0  0
  -13.6951    2.0242  -23.2396 N   0  0  0  0  0  0  0  0  0  0  0  0
  -13.3118    3.4592  -23.4482 C   0  0  0  0  0  0  0  0  0  0  0  0
  -11.8894    3.8176  -23.7621 C   0  0  0  0  0  0  0  0  0  0  0  0
  -11.5060    5.2526  -23.9708 C   0  0  0  0  0  0  0  0  0  0  0  0
  -10.0837    5.6109  -24.2847 C   0  0  0  0  0  0  0  0  0  0  0  0
   -9.0447    4.5342  -24.3900 C   0  0  0  0  0  0  0  0  0  0  0  0
   -9.4281    3.0991  -24.1813 C   0  0  0  0  0  0  0  0  0  0  0  0
  -10.8504    2.7408  -23.8674 C   0  0  0  0  0  0  0  0  0  0  0  0
   -8.2657   -2.0275  -21.1302 C   0  0  0  0  0  0  0  0  0  0  0  0
   -7.0004   -1.3040  -20.7759 C   0  0  0  0  0  0  0  0  0  0  0  0
   -5.9584   -1.0569  -21.8264 C   0  0  0  0  0  0  0  0  0  0  0  0
   -4.6931   -0.3334  -21.4721 C   0  0  0  0  0  0  0  0  0  0  0  0
   -4.4698    0.1430  -20.0674 C   0  0  0  0  0  0  0  0  0  0  0  0
   -5.5117   -0.1041  -19.0170 C   0  0  0  0  0  0  0  0  0  0  0  0
   -5.2883    0.3723  -17.6124 Cl  0  0  0  0  0  0  0  0  0  0  0  0
   -6.7770   -0.8276  -19.3713 C   0  0  0  0  0  0  0  0  0  0  0  0
  1  2  2  0  0  0
  2 17  1  0  0  0
 17 18  1  0  0  0
 18 19  2  0  0  0
 19 20  1  0  0  0
 20 21  2  0  0  0
 21 22  1  0  0  0
 22 23  2  0  0  0
 23 24  1  0  0  0
 24 25  2  0  0  0
 25 26  1  0  0  0
 26 27  2  0  0  0
  2  3  1  0  0  0
  3 28  1  0  0  0
 28 29  1  0  0  0
 29 30  2  0  0  0
 30 31  1  0  0  0
 31 32  2  0  0  0
 32 33  1  0  0  0
 33 34  1  0  0  0
 33 35  2  0  0  0
  4  3  1  0  0  0
  4  5  1  0  0  0
  5  6  1  0  0  0
  7  6  1  0  0  0
  7  8  1  0  0  0
  7  9  1  0  0  0
  9 12  1  0  0  0
 12 13  1  0  0  0
 13 14  1  0  0  0
 14 15  1  0  0  0
 15 16  1  0  0  0
  9 10  1  0  0  0
 27 18  1  0  0  0
 35 29  1  0  0  0
  8  4  1  0  0  0
 16 13  1  0  0  0
 27 22  1  0  0  0
 10  4  1  0  0  0
  9 11  1  0  0  0
M  CHG 1   9   1
M  END
> <minimizedAffinity>
-8.57514

> <CNNscore>
0.2299803197

> <CNNaffinity>
6.0873694420

> <CNN_VS>
1.3999751806

> <CNNaffinity_variance>
0.4433016777

$$$$
