


 35 40  0  0  0  0  0  0  0  0999 V2000
    6.5660   -1.9845   22.0131 O   0  0  0  0  0  0  0  0  0  0  0  0
    7.8895   -1.2957   21.8580 C   0  0  0  0  0  0  0  0  0  0  0  0
    9.0513   -1.7018   22.7155 N   0  0  0  0  0  0  0  0  0  0  0  0
   10.3747   -1.0131   22.5605 C   0  0  0  0  0  0  0  0  0  0  0  0
   11.6318   -1.6297   22.0223 C   0  0  0  0  0  0  0  0  0  0  0  0
   12.7075   -0.5845   22.0456 C   0  0  0  0  0  0  0  0  0  0  0  0
   12.1153    0.6780   22.5982 C   0  0  0  0  0  0  0  0  0  0  0  0
   10.6736    0.4131   22.9164 C   0  0  0  0  0  0  0  0  0  0  0  0
   10.8582    1.2946   23.1364 N   0  0  0  0  0  0  0  0  0  0  0  0
    9.7825    0.2494   23.1130 C   0  0  0  0  0  0  0  0  0  0  0  0
   11.6841    1.8914   23.0910 H   0  0  0  0  0  0  0  0  0  0  0  0
   10.7040    2.7081   23.6139 C   0  0  0  0  0  0  0  0  0  0  0  0
   11.4229    3.8204   22.9097 C   0  0  0  0  0  0  0  0  0  0  0  0
   11.2782    5.3125   22.8596 C   0  0  0  0  0  0  0  0  0  0  0  0
   12.4396    5.3934   21.9139 O   0  0  0  0  0  0  0  0  0  0  0  0
   12.5844    3.9013   21.9640 C   0  0  0  0  0  0  0  0  0  0  0  0
    8.0511   -0.2010   20.8455 C   0  0  0  0  0  0  0  0  0  0  0  0
    6.9010    0.1775   19.9600 C   0  0  0  0  0  0  0  0  0  0  0  0
    6.6844   -0.5435   18.6627 C   0  0  0  0  0  0  0  0  0  0  0  0
    5.5343   -0.1651   17.7772 N   0  0  0  0  0  0  0  0  0  0  0  0
    4.6009    0.9345   18.1891 C   0  0  0  0  0  0  0  0  0  0  0  0
    4.8175    1.6556   19.4865 C   0  0  0  0  0  0  0  0  0  0  0  0
    3.8840    2.7551   19.8983 C   0  0  0  0  0  0  0  0  0  0  0  0
    4.1007    3.4762   21.1956 C   0  0  0  0  0  0  0  0  0  0  0  0
    5.2508    3.0977   22.0811 C   0  0  0  0  0  0  0  0  0  0  0  0
    6.1842    1.9982   21.6693 C   0  0  0  0  0  0  0  0  0  0  0  0
    5.9676    1.2771   20.3719 C   0  0  0  0  0  0  0  0  0  0  0  0
    8.8896   -2.7966   23.7281 C   0  0  0  0  0  0  0  0  0  0  0  0
    9.9897   -3.0811   24.7073 C   0  0  0  0  0  0  0  0  0  0  0  0
    9.8877   -4.2608   25.6281 C   0  0  0  0  0  0  0  0  0  0  0  0
   10.9879   -4.5453   26.6072 C   0  0  0  0  0  0  0  0  0  0  0  0
   12.1900   -3.6500   26.6656 C   0  0  0  0  0  0  0  0  0  0  0  0
   12.2920   -2.4703   25.7448 C   0  0  0  0  0  0  0  0  0  0  0  0
   13.4941   -1.5751   25.8032 Cl  0  0  0  0  0  0  0  0  0  0  0  0
   11.1918   -2.1859   24.7656 C   0  0  0  0  0  0  0  0  0  0  0  0
  1  2  2  0  0  0
  2 17  1  0  0  0
 17 18  1  0  0  0
 18 19  2  0  0  0
 19 20  1  0  0  0
 20 21  2  0  0  0
 21 22  1  0  0  0
 22 23  2  0  0  0
 23 24  1  0  0  0
 24 25  2  0  0  0
 25 26  1  0  0  0
 26 27  2  0  0  0
  2  3  1  0  0  0
  3 28  1  0  0  0
 28 29  1  0  0  0
 29 30  2  0  0  0
 30 31  1  0  0  0
 31 32  2  0  0  0
 32 33  1  0  0  0
 33 34  1  0  0  0
 33 35  2  0  0  0
  4  3  1  0  0  0
  4  5  1  0  0  0
  5  6  1  0  0  0
  7  6  1  0  0  0
  7  8  1  0  0  0
  7  9  1  0  0  0
  9 12  1  0  0  0
 12 13  1  0  0  0
 13 14  1  0  0  0
 14 15  1  0  0  0
 15 16  1  0  0  0
  9 10  1  0  0  0
 27 18  1  0  0  0
 35 29  1  0  0  0
  8  4  1  0  0  0
 16 13  1  0  0  0
 27 22  1  0  0  0
 10  4  1  0  0  0
  9 11  1  0  0  0
M  CHG 1   9   1
M  END
> <minimizedAffinity>
-8.96806

> <CNNscore>
0.8637233377

> <CNNaffinity>
7.4640426636

> <CNN_VS>
6.4468679428

> <CNNaffinity_variance>
0.0858213603

$$$$



 35 40  0  0  0  0  0  0  0  0999 V2000
    8.5609    1.7330   21.1409 O   0  0  0  0  0  0  0  0  0  0  0  0
    7.8593    0.7893   22.0722 C   0  0  0  0  0  0  0  0  0  0  0  0
    8.5366    0.3364   23.3316 N   0  0  0  0  0  0  0  0  0  0  0  0
    7.8351   -0.6073   24.2629 C   0  0  0  0  0  0  0  0  0  0  0  0
    7.6840   -0.4336   25.7451 C   0  0  0  0  0  0  0  0  0  0  0  0
    6.9170   -1.6093   26.2737 C   0  0  0  0  0  0  0  0  0  0  0  0
    6.5941   -2.5096   25.1182 C   0  0  0  0  0  0  0  0  0  0  0  0
    7.1615   -1.8903   23.8754 C   0  0  0  0  0  0  0  0  0  0  0  0
    6.7451   -2.6833   23.6359 N   0  0  0  0  0  0  0  0  0  0  0  0
    7.5122   -1.5075   23.1074 C   0  0  0  0  0  0  0  0  0  0  0  0
    6.2396   -3.4128   24.1385 H   0  0  0  0  0  0  0  0  0  0  0  0
    6.2212   -3.8311   22.8248 C   0  0  0  0  0  0  0  0  0  0  0  0
    6.7512   -5.2154   23.0544 C   0  0  0  0  0  0  0  0  0  0  0  0
    7.4466   -5.9106   24.1871 C   0  0  0  0  0  0  0  0  0  0  0  0
    7.5008   -7.1731   23.3790 O   0  0  0  0  0  0  0  0  0  0  0  0
    6.8055   -6.4779   22.2463 C   0  0  0  0  0  0  0  0  0  0  0  0
    6.4804    0.2984   21.7440 C   0  0  0  0  0  0  0  0  0  0  0  0
    5.8955    0.5568   20.3872 C   0  0  0  0  0  0  0  0  0  0  0  0
    6.5343   -0.0410   19.1688 C   0  0  0  0  0  0  0  0  0  0  0  0
    5.9493    0.2175   17.8119 N   0  0  0  0  0  0  0  0  0  0  0  0
    4.7255    1.0737   17.6735 C   0  0  0  0  0  0  0  0  0  0  0  0
    4.0867    1.6716   18.8919 C   0  0  0  0  0  0  0  0  0  0  0  0
    2.8629    2.5278   18.7534 C   0  0  0  0  0  0  0  0  0  0  0  0
    2.2241    3.1256   19.9718 C   0  0  0  0  0  0  0  0  0  0  0  0
    2.8091    2.8672   21.3287 C   0  0  0  0  0  0  0  0  0  0  0  0
    4.0328    2.0109   21.4671 C   0  0  0  0  0  0  0  0  0  0  0  0
    4.6716    1.4131   20.2487 C   0  0  0  0  0  0  0  0  0  0  0  0
    9.9155    0.8274   23.6598 C   0  0  0  0  0  0  0  0  0  0  0  0
   11.0583   -0.1413   23.7354 C   0  0  0  0  0  0  0  0  0  0  0  0
   11.8462   -0.4694   22.5019 C   0  0  0  0  0  0  0  0  0  0  0  0
   12.9890   -1.4382   22.5775 C   0  0  0  0  0  0  0  0  0  0  0  0
   13.3438   -2.0788   23.8867 C   0  0  0  0  0  0  0  0  0  0  0  0
   12.5558   -1.7507   25.1201 C   0  0  0  0  0  0  0  0  0  0  0  0
   12.9106   -2.3913   26.4292 Cl  0  0  0  0  0  0  0  0  0  0  0  0
   11.4130   -0.7820   25.0445 C   0  0  0  0  0  0  0  0  0  0  0  0
  1  2  2  0  0  0
  2 17  1  0  0  0
 17 18  1  0  0  0
 18 19  2  0  0  0
 19 20  1  0  0  0
 20 21  2  0  0  0
 21 22  1  0  0  0
 22 23  2  0  0  0
 23 24  1  0  0  0
 24 25  2  0  0  0
 25 26  1  0  0  0
 26 27  2  0  0  0
  2  3  1  0  0  0
  3 28  1  0  0  0
 28 29  1  0  0  0
 29 30  2  0  0  0
 30 31  1  0  0  0
 31 32  2  0  0  0
 32 33  1  0  0  0
 33 34  1  0  0  0
 33 35  2  0  0  0
  4  3  1  0  0  0
  4  5  1  0  0  0
  5  6  1  0  0  0
  7  6  1  0  0  0
  7  8  1  0  0  0
  7  9  1  0  0  0
  9 12  1  0  0  0
 12 13  1  0  0  0
 13 14  1  0  0  0
 14 15  1  0  0  0
 15 16  1  0  0  0
  9 10  1  0  0  0
 27 18  1  0  0  0
 35 29  1  0  0  0
  8  4  1  0  0  0
 16 13  1  0  0  0
 27 22  1  0  0  0
 10  4  1  0  0  0
  9 11  1  0  0  0
M  CHG 1   9   1
M  END
> <minimizedAffinity>
-8.55349

> <CNNscore>
0.7294734120

> <CNNaffinity>
7.0294065475

> <CNN_VS>
5.1277651787

> <CNNaffinity_variance>
0.1161568314

$$$$



 35 40  0  0  0  0  0  0  0  0999 V2000
    7.4746    1.2874   22.1717 O   0  0  0  0  0  0  0  0  0  0  0  0
    7.0521   -0.1278   22.4344 C   0  0  0  0  0  0  0  0  0  0  0  0
    7.6556   -0.8911   23.5759 N   0  0  0  0  0  0  0  0  0  0  0  0
    7.2331   -2.3061   23.8387 C   0  0  0  0  0  0  0  0  0  0  0  0
    7.7664   -3.5276   23.1506 C   0  0  0  0  0  0  0  0  0  0  0  0
    7.0660   -4.7246   23.7223 C   0  0  0  0  0  0  0  0  0  0  0  0
    6.0998   -4.2428   24.7636 C   0  0  0  0  0  0  0  0  0  0  0  0
    6.2031   -2.7481   24.8356 C   0  0  0  0  0  0  0  0  0  0  0  0
    5.5665   -3.0213   25.4517 N   0  0  0  0  0  0  0  0  0  0  0  0
    6.2670   -1.8243   24.8800 C   0  0  0  0  0  0  0  0  0  0  0  0
    5.1800   -3.9204   25.7389 H   0  0  0  0  0  0  0  0  0  0  0  0
    4.5171   -3.0004   26.5232 C   0  0  0  0  0  0  0  0  0  0  0  0
    4.9180   -3.0663   27.9671 C   0  0  0  0  0  0  0  0  0  0  0  0
    4.1867   -2.9997   29.2750 C   0  0  0  0  0  0  0  0  0  0  0  0
    5.4850   -3.1594   30.0091 O   0  0  0  0  0  0  0  0  0  0  0  0
    6.2163   -3.2260   28.7012 C   0  0  0  0  0  0  0  0  0  0  0  0
    6.0260   -0.7795   21.5556 C   0  0  0  0  0  0  0  0  0  0  0  0
    5.6191   -0.1279   20.2673 C   0  0  0  0  0  0  0  0  0  0  0  0
    6.3809   -0.4158   19.0077 C   0  0  0  0  0  0  0  0  0  0  0  0
    5.9740    0.2359   17.7194 N   0  0  0  0  0  0  0  0  0  0  0  0
    4.8052    1.1755   17.6907 C   0  0  0  0  0  0  0  0  0  0  0  0
    4.0432    1.4635   18.9503 C   0  0  0  0  0  0  0  0  0  0  0  0
    2.8744    2.4032   18.9216 C   0  0  0  0  0  0  0  0  0  0  0  0
    2.1125    2.6911   20.1812 C   0  0  0  0  0  0  0  0  0  0  0  0
    2.5195    2.0394   21.4695 C   0  0  0  0  0  0  0  0  0  0  0  0
    3.6883    1.0998   21.4982 C   0  0  0  0  0  0  0  0  0  0  0  0
    4.4502    0.8118   20.2386 C   0  0  0  0  0  0  0  0  0  0  0  0
    8.6817   -0.2392   24.4548 C   0  0  0  0  0  0  0  0  0  0  0  0
   10.1060   -0.7084   24.4199 C   0  0  0  0  0  0  0  0  0  0  0  0
   10.7601   -1.2138   25.6717 C   0  0  0  0  0  0  0  0  0  0  0  0
   12.1844   -1.6829   25.6369 C   0  0  0  0  0  0  0  0  0  0  0  0
   12.9546   -1.6467   24.3502 C   0  0  0  0  0  0  0  0  0  0  0  0
   12.3006   -1.1414   23.0985 C   0  0  0  0  0  0  0  0  0  0  0  0
   13.0709   -1.1052   21.8119 Cl  0  0  0  0  0  0  0  0  0  0  0  0
   10.8763   -0.6722   23.1334 C   0  0  0  0  0  0  0  0  0  0  0  0
  1  2  2  0  0  0
  2 17  1  0  0  0
 17 18  1  0  0  0
 18 19  2  0  0  0
 19 20  1  0  0  0
 20 21  2  0  0  0
 21 22  1  0  0  0
 22 23  2  0  0  0
 23 24  1  0  0  0
 24 25  2  0  0  0
 25 26  1  0  0  0
 26 27  2  0  0  0
  2  3  1  0  0  0
  3 28  1  0  0  0
 28 29  1  0  0  0
 29 30  2  0  0  0
 30 31  1  0  0  0
 31 32  2  0  0  0
 32 33  1  0  0  0
 33 34  1  0  0  0
 33 35  2  0  0  0
  4  3  1  0  0  0
  4  5  1  0  0  0
  5  6  1  0  0  0
  7  6  1  0  0  0
  7  8  1  0  0  0
  7  9  1  0  0  0
  9 12  1  0  0  0
 12 13  1  0  0  0
 13 14  1  0  0  0
 14 15  1  0  0  0
 15 16  1  0  0  0
  9 10  1  0  0  0
 27 18  1  0  0  0
 35 29  1  0  0  0
  8  4  1  0  0  0
 16 13  1  0  0  0
 27 22  1  0  0  0
 10  4  1  0  0  0
  9 11  1  0  0  0
M  CHG 1   9   1
M  END
> <minimizedAffinity>
-7.72493

> <CNNscore>
0.6202165484

> <CNNaffinity>
6.6488013268

> <CNN_VS>
4.1236968040

> <CNNaffinity_variance>
0.0897057578

$$$$



 35 40  0  0  0  0  0  0  0  0999 V2000
    8.2028   -4.0465   23.1884 O   0  0  0  0  0  0  0  0  0  0  0  0
    8.3183   -2.5660   22.9764 C   0  0  0  0  0  0  0  0  0  0  0  0
    7.2106   -1.6564   23.4185 N   0  0  0  0  0  0  0  0  0  0  0  0
    7.3260   -0.1760   23.2065 C   0  0  0  0  0  0  0  0  0  0  0  0
    8.2201    0.7567   23.9686 C   0  0  0  0  0  0  0  0  0  0  0  0
    8.0143    2.1408   23.4283 C   0  0  0  0  0  0  0  0  0  0  0  0
    6.9931    2.0636   22.3323 C   0  0  0  0  0  0  0  0  0  0  0  0
    6.5677    0.6317   22.1953 C   0  0  0  0  0  0  0  0  0  0  0  0
    6.0990    1.1309   21.5703 N   0  0  0  0  0  0  0  0  0  0  0  0
    6.3048   -0.2533   22.1106 C   0  0  0  0  0  0  0  0  0  0  0  0
    6.0679    2.1170   21.3114 H   0  0  0  0  0  0  0  0  0  0  0  0
    5.1635    1.5149   20.4625 C   0  0  0  0  0  0  0  0  0  0  0  0
    5.2417    0.8150   19.1382 C   0  0  0  0  0  0  0  0  0  0  0  0
    5.8924   -0.4410   18.6392 C   0  0  0  0  0  0  0  0  0  0  0  0
    5.3524   -0.1749   17.2653 O   0  0  0  0  0  0  0  0  0  0  0  0
    4.7018    1.0811   17.7643 C   0  0  0  0  0  0  0  0  0  0  0  0
    9.5415   -1.9952   22.3222 C   0  0  0  0  0  0  0  0  0  0  0  0
   10.7785   -1.7459   23.1331 C   0  0  0  0  0  0  0  0  0  0  0  0
   11.8010   -0.7572   22.6566 C   0  0  0  0  0  0  0  0  0  0  0  0
   13.0381   -0.5079   23.4675 N   0  0  0  0  0  0  0  0  0  0  0  0
   13.2526   -1.2472   24.7548 C   0  0  0  0  0  0  0  0  0  0  0  0
   12.2301   -2.2359   25.2314 C   0  0  0  0  0  0  0  0  0  0  0  0
   12.4447   -2.9752   26.5187 C   0  0  0  0  0  0  0  0  0  0  0  0
   11.4222   -3.9638   26.9952 C   0  0  0  0  0  0  0  0  0  0  0  0
   10.1852   -4.2132   26.1843 C   0  0  0  0  0  0  0  0  0  0  0  0
    9.9706   -3.4739   24.8970 C   0  0  0  0  0  0  0  0  0  0  0  0
   10.9931   -2.4852   24.4205 C   0  0  0  0  0  0  0  0  0  0  0  0
    5.9874   -2.2273   24.0727 C   0  0  0  0  0  0  0  0  0  0  0  0
    5.7113   -3.6994   23.9915 C   0  0  0  0  0  0  0  0  0  0  0  0
    5.5924   -4.5106   25.2477 C   0  0  0  0  0  0  0  0  0  0  0  0
    5.3163   -5.9827   25.1665 C   0  0  0  0  0  0  0  0  0  0  0  0
    5.1591   -6.6437   23.8291 C   0  0  0  0  0  0  0  0  0  0  0  0
    5.2780   -5.8325   22.5731 C   0  0  0  0  0  0  0  0  0  0  0  0
    5.1208   -6.4935   21.2358 Cl  0  0  0  0  0  0  0  0  0  0  0  0
    5.5541   -4.3604   22.6543 C   0  0  0  0  0  0  0  0  0  0  0  0
  1  2  2  0  0  0
  2 17  1  0  0  0
 17 18  1  0  0  0
 18 19  2  0  0  0
 19 20  1  0  0  0
 20 21  2  0  0  0
 21 22  1  0  0  0
 22 23  2  0  0  0
 23 24  1  0  0  0
 24 25  2  0  0  0
 25 26  1  0  0  0
 26 27  2  0  0  0
  2  3  1  0  0  0
  3 28  1  0  0  0
 28 29  1  0  0  0
 29 30  2  0  0  0
 30 31  1  0  0  0
 31 32  2  0  0  0
 32 33  1  0  0  0
 33 34  1  0  0  0
 33 35  2  0  0  0
  4  3  1  0  0  0
  4  5  1  0  0  0
  5  6  1  0  0  0
  7  6  1  0  0  0
  7  8  1  0  0  0
  7  9  1  0  0  0
  9 12  1  0  0  0
 12 13  1  0  0  0
 13 14  1  0  0  0
 14 15  1  0  0  0
 15 16  1  0  0  0
  9 10  1  0  0  0
 27 18  1  0  0  0
 35 29  1  0  0  0
  8  4  1  0  0  0
 16 13  1  0  0  0
 27 22  1  0  0  0
 10  4  1  0  0  0
  9 11  1  0  0  0
M  CHG 1   9   1
M  END
> <minimizedAffinity>
-8.34229

> <CNNscore>
0.5517001748

> <CNNaffinity>
7.0654578209

> <CNN_VS>
3.8980143070

> <CNNaffinity_variance>
0.1917262971

$$$$



 35 40  0  0  0  0  0  0  0  0999 V2000
    8.2907    1.3686   21.1803 O   0  0  0  0  0  0  0  0  0  0  0  0
    7.5115    0.3412   21.9468 C   0  0  0  0  0  0  0  0  0  0  0  0
    7.7722    0.1405   23.4103 N   0  0  0  0  0  0  0  0  0  0  0  0
    6.9931   -0.8869   24.1768 C   0  0  0  0  0  0  0  0  0  0  0  0
    5.5700   -0.7552   24.6322 C   0  0  0  0  0  0  0  0  0  0  0  0
    5.1977   -2.0131   25.3594 C   0  0  0  0  0  0  0  0  0  0  0  0
    6.3908   -2.9224   25.3534 C   0  0  0  0  0  0  0  0  0  0  0  0
    7.5003   -2.2263   24.6226 C   0  0  0  0  0  0  0  0  0  0  0  0
    7.8138   -3.0541   24.8980 N   0  0  0  0  0  0  0  0  0  0  0  0
    8.1861   -1.7960   24.1708 C   0  0  0  0  0  0  0  0  0  0  0  0
    7.4175   -3.8408   25.4122 H   0  0  0  0  0  0  0  0  0  0  0  0
    8.7077   -4.2363   25.1293 C   0  0  0  0  0  0  0  0  0  0  0  0
   10.0565   -4.0454   25.7571 C   0  0  0  0  0  0  0  0  0  0  0  0
   11.2498   -3.1846   25.4657 C   0  0  0  0  0  0  0  0  0  0  0  0
   11.9639   -3.7754   26.6450 O   0  0  0  0  0  0  0  0  0  0  0  0
   10.7707   -4.6362   26.9364 C   0  0  0  0  0  0  0  0  0  0  0  0
    6.4719   -0.4854   21.2499 C   0  0  0  0  0  0  0  0  0  0  0  0
    5.7896    0.0454   20.0239 C   0  0  0  0  0  0  0  0  0  0  0  0
    6.2335   -0.4056   18.6640 C   0  0  0  0  0  0  0  0  0  0  0  0
    5.5513    0.1251   17.4381 N   0  0  0  0  0  0  0  0  0  0  0  0
    4.4252    1.1068   17.5721 C   0  0  0  0  0  0  0  0  0  0  0  0
    3.9812    1.5579   18.9321 C   0  0  0  0  0  0  0  0  0  0  0  0
    2.8551    2.5396   19.0661 C   0  0  0  0  0  0  0  0  0  0  0  0
    2.4112    2.9906   20.4261 C   0  0  0  0  0  0  0  0  0  0  0  0
    3.0935    2.4599   21.6520 C   0  0  0  0  0  0  0  0  0  0  0  0
    4.2196    1.4781   21.5180 C   0  0  0  0  0  0  0  0  0  0  0  0
    4.6635    1.0271   20.1580 C   0  0  0  0  0  0  0  0  0  0  0  0
    8.8119    0.9671   24.1072 C   0  0  0  0  0  0  0  0  0  0  0  0
   10.2189    0.9959   23.5881 C   0  0  0  0  0  0  0  0  0  0  0  0
   10.8646    2.3054   23.2436 C   0  0  0  0  0  0  0  0  0  0  0  0
   12.2716    2.3342   22.7245 C   0  0  0  0  0  0  0  0  0  0  0  0
   13.0330    1.0536   22.5499 C   0  0  0  0  0  0  0  0  0  0  0  0
   12.3873   -0.2558   22.8945 C   0  0  0  0  0  0  0  0  0  0  0  0
   13.1487   -1.5363   22.7199 Cl  0  0  0  0  0  0  0  0  0  0  0  0
   10.9803   -0.2846   23.4135 C   0  0  0  0  0  0  0  0  0  0  0  0
  1  2  2  0  0  0
  2 17  1  0  0  0
 17 18  1  0  0  0
 18 19  2  0  0  0
 19 20  1  0  0  0
 20 21  2  0  0  0
 21 22  1  0  0  0
 22 23  2  0  0  0
 23 24  1  0  0  0
 24 25  2  0  0  0
 25 26  1  0  0  0
 26 27  2  0  0  0
  2  3  1  0  0  0
  3 28  1  0  0  0
 28 29  1  0  0  0
 29 30  2  0  0  0
 30 31  1  0  0  0
 31 32  2  0  0  0
 32 33  1  0  0  0
 33 34  1  0  0  0
 33 35  2  0  0  0
  4  3  1  0  0  0
  4  5  1  0  0  0
  5  6  1  0  0  0
  7  6  1  0  0  0
  7  8  1  0  0  0
  7  9  1  0  0  0
  9 12  1  0  0  0
 12 13  1  0  0  0
 13 14  1  0  0  0
 14 15  1  0  0  0
 15 16  1  0  0  0
  9 10  1  0  0  0
 27 18  1  0  0  0
 35 29  1  0  0  0
  8  4  1  0  0  0
 16 13  1  0  0  0
 27 22  1  0  0  0
 10  4  1  0  0  0
  9 11  1  0  0  0
M  CHG 1   9   1
M  END
> <minimizedAffinity>
-8.15939

> <CNNscore>
0.5198549628

> <CNNaffinity>
6.7033410072

> <CNN_VS>
3.4847650528

> <CNNaffinity_variance>
0.0428233370

$$$$



 35 40  0  0  0  0  0  0  0  0999 V2000
    8.5546   -0.9366   20.8485 O   0  0  0  0  0  0  0  0  0  0  0  0
    7.5448   -0.9621   21.9575 C   0  0  0  0  0  0  0  0  0  0  0  0
    7.7535   -1.8593   23.1413 N   0  0  0  0  0  0  0  0  0  0  0  0
    6.7437   -1.8848   24.2502 C   0  0  0  0  0  0  0  0  0  0  0  0
    6.2810   -0.7023   25.0486 C   0  0  0  0  0  0  0  0  0  0  0  0
    5.2707   -1.1840   26.0473 C   0  0  0  0  0  0  0  0  0  0  0  0
    5.1091   -2.6642   25.8661 C   0  0  0  0  0  0  0  0  0  0  0  0
    6.0195   -3.0973   24.7555 C   0  0  0  0  0  0  0  0  0  0  0  0
    5.5718   -3.8467   25.0677 N   0  0  0  0  0  0  0  0  0  0  0  0
    6.5821   -3.3650   24.0690 C   0  0  0  0  0  0  0  0  0  0  0  0
    4.8765   -4.0213   25.7933 H   0  0  0  0  0  0  0  0  0  0  0  0
    5.1061   -5.2624   25.2381 C   0  0  0  0  0  0  0  0  0  0  0  0
    4.0912   -5.8367   24.2948 C   0  0  0  0  0  0  0  0  0  0  0  0
    2.6833   -6.3369   24.4275 C   0  0  0  0  0  0  0  0  0  0  0  0
    2.6559   -6.6490   22.9607 O   0  0  0  0  0  0  0  0  0  0  0  0
    4.0637   -6.1489   22.8279 C   0  0  0  0  0  0  0  0  0  0  0  0
    6.3264   -0.0904   21.8826 C   0  0  0  0  0  0  0  0  0  0  0  0
    5.7746    0.3142   20.5477 C   0  0  0  0  0  0  0  0  0  0  0  0
    6.4866   -0.0854   19.2895 C   0  0  0  0  0  0  0  0  0  0  0  0
    5.9348    0.3192   17.9546 N   0  0  0  0  0  0  0  0  0  0  0  0
    4.6708    1.1232   17.8781 C   0  0  0  0  0  0  0  0  0  0  0  0
    3.9586    1.5227   19.1364 C   0  0  0  0  0  0  0  0  0  0  0  0
    2.6947    2.3267   19.0598 C   0  0  0  0  0  0  0  0  0  0  0  0
    1.9826    2.7262   20.3181 C   0  0  0  0  0  0  0  0  0  0  0  0
    2.5345    2.3217   21.6529 C   0  0  0  0  0  0  0  0  0  0  0  0
    3.7984    1.5177   21.7295 C   0  0  0  0  0  0  0  0  0  0  0  0
    4.5105    1.1182   20.4712 C   0  0  0  0  0  0  0  0  0  0  0  0
    8.9719   -2.7310   23.2162 C   0  0  0  0  0  0  0  0  0  0  0  0
   10.2542   -2.1819   23.7677 C   0  0  0  0  0  0  0  0  0  0  0  0
   10.7190   -2.5909   25.1340 C   0  0  0  0  0  0  0  0  0  0  0  0
   12.0013   -2.0418   25.6855 C   0  0  0  0  0  0  0  0  0  0  0  0
   12.8188   -1.0836   24.8708 C   0  0  0  0  0  0  0  0  0  0  0  0
   12.3539   -0.6746   23.5046 C   0  0  0  0  0  0  0  0  0  0  0  0
   13.1713    0.2836   22.6899 Cl  0  0  0  0  0  0  0  0  0  0  0  0
   11.0716   -1.2237   22.9530 C   0  0  0  0  0  0  0  0  0  0  0  0
  1  2  2  0  0  0
  2 17  1  0  0  0
 17 18  1  0  0  0
 18 19  2  0  0  0
 19 20  1  0  0  0
 20 21  2  0  0  0
 21 22  1  0  0  0
 22 23  2  0  0  0
 23 24  1  0  0  0
 24 25  2  0  0  0
 25 26  1  0  0  0
 26 27  2  0  0  0
  2  3  1  0  0  0
  3 28  1  0  0  0
 28 29  1  0  0  0
 29 30  2  0  0  0
 30 31  1  0  0  0
 31 32  2  0  0  0
 32 33  1  0  0  0
 33 34  1  0  0  0
 33 35  2  0  0  0
  4  3  1  0  0  0
  4  5  1  0  0  0
  5  6  1  0  0  0
  7  6  1  0  0  0
  7  8  1  0  0  0
  7  9  1  0  0  0
  9 12  1  0  0  0
 12 13  1  0  0  0
 13 14  1  0  0  0
 14 15  1  0  0  0
 15 16  1  0  0  0
  9 10  1  0  0  0
 27 18  1  0  0  0
 35 29  1  0  0  0
  8  4  1  0  0  0
 16 13  1  0  0  0
 27 22  1  0  0  0
 10  4  1  0  0  0
  9 11  1  0  0  0
M  CHG 1   9   1
M  END
> <minimizedAffinity>
-7.83094

> <CNNscore>
0.5144765973

> <CNNaffinity>
6.6224889755

> <CNN_VS>
3.4071156979

> <CNNaffinity_variance>
0.1205288544

$$$$



 35 40  0  0  0  0  0  0  0  0999 V2000
    9.3160    2.2942   22.3281 O   0  0  0  0  0  0  0  0  0  0  0  0
    8.5681    1.0423   22.6792 C   0  0  0  0  0  0  0  0  0  0  0  0
    9.2876   -0.1055   23.3234 N   0  0  0  0  0  0  0  0  0  0  0  0
    8.5397   -1.3574   23.6745 C   0  0  0  0  0  0  0  0  0  0  0  0
    8.6066   -2.6610   22.9355 C   0  0  0  0  0  0  0  0  0  0  0  0
    7.7018   -3.6348   23.6305 C   0  0  0  0  0  0  0  0  0  0  0  0
    7.0758   -2.9331   24.7992 C   0  0  0  0  0  0  0  0  0  0  0  0
    7.5936   -1.5256   24.8264 C   0  0  0  0  0  0  0  0  0  0  0  0
    7.0089   -1.6295   25.5382 N   0  0  0  0  0  0  0  0  0  0  0  0
    7.9137   -0.6557   24.8431 C   0  0  0  0  0  0  0  0  0  0  0  0
    6.4400   -2.3957   25.8983 H   0  0  0  0  0  0  0  0  0  0  0  0
    6.1824   -1.3491   26.7581 C   0  0  0  0  0  0  0  0  0  0  0  0
    5.6995   -2.4825   27.6138 C   0  0  0  0  0  0  0  0  0  0  0  0
    6.3218   -3.3661   28.6539 C   0  0  0  0  0  0  0  0  0  0  0  0
    5.0166   -4.0854   28.8238 O   0  0  0  0  0  0  0  0  0  0  0  0
    4.3943   -3.2019   27.7836 C   0  0  0  0  0  0  0  0  0  0  0  0
    7.1007    0.9381   22.3862 C   0  0  0  0  0  0  0  0  0  0  0  0
    6.6314    0.7026   20.9811 C   0  0  0  0  0  0  0  0  0  0  0  0
    7.3879   -0.2319   20.0843 C   0  0  0  0  0  0  0  0  0  0  0  0
    6.9186   -0.4674   18.6793 N   0  0  0  0  0  0  0  0  0  0  0  0
    5.6927    0.2316   18.1709 C   0  0  0  0  0  0  0  0  0  0  0  0
    4.9361    1.1662   19.0677 C   0  0  0  0  0  0  0  0  0  0  0  0
    3.7102    1.8653   18.5593 C   0  0  0  0  0  0  0  0  0  0  0  0
    2.9536    2.7998   19.4561 C   0  0  0  0  0  0  0  0  0  0  0  0
    3.4229    3.0353   20.8612 C   0  0  0  0  0  0  0  0  0  0  0  0
    4.6488    2.3363   21.3695 C   0  0  0  0  0  0  0  0  0  0  0  0
    5.4054    1.4017   20.4728 C   0  0  0  0  0  0  0  0  0  0  0  0
   10.7550   -0.0013   23.6165 C   0  0  0  0  0  0  0  0  0  0  0  0
   11.4153   -1.0109   24.5079 C   0  0  0  0  0  0  0  0  0  0  0  0
   12.9070   -1.1675   24.4876 C   0  0  0  0  0  0  0  0  0  0  0  0
   13.5673   -2.1772   25.3790 C   0  0  0  0  0  0  0  0  0  0  0  0
   12.7359   -3.0302   26.2908 C   0  0  0  0  0  0  0  0  0  0  0  0
   11.2443   -2.8735   26.3111 C   0  0  0  0  0  0  0  0  0  0  0  0
   10.4130   -3.7265   27.2228 Cl  0  0  0  0  0  0  0  0  0  0  0  0
   10.5840   -1.8639   25.4196 C   0  0  0  0  0  0  0  0  0  0  0  0
  1  2  2  0  0  0
  2 17  1  0  0  0
 17 18  1  0  0  0
 18 19  2  0  0  0
 19 20  1  0  0  0
 20 21  2  0  0  0
 21 22  1  0  0  0
 22 23  2  0  0  0
 23 24  1  0  0  0
 24 25  2  0  0  0
 25 26  1  0  0  0
 26 27  2  0  0  0
  2  3  1  0  0  0
  3 28  1  0  0  0
 28 29  1  0  0  0
 29 30  2  0  0  0
 30 31  1  0  0  0
 31 32  2  0  0  0
 32 33  1  0  0  0
 33 34  1  0  0  0
 33 35  2  0  0  0
  4  3  1  0  0  0
  4  5  1  0  0  0
  5  6  1  0  0  0
  7  6  1  0  0  0
  7  8  1  0  0  0
  7  9  1  0  0  0
  9 12  1  0  0  0
 12 13  1  0  0  0
 13 14  1  0  0  0
 14 15  1  0  0  0
 15 16  1  0  0  0
  9 10  1  0  0  0
 27 18  1  0  0  0
 35 29  1  0  0  0
  8  4  1  0  0  0
 16 13  1  0  0  0
 27 22  1  0  0  0
 10  4  1  0  0  0
  9 11  1  0  0  0
M  CHG 1   9   1
M  END
> <minimizedAffinity>
-7.98345

> <CNNscore>
0.5060143471

> <CNNaffinity>
6.5625009537

> <CNN_VS>
3.3207197189

> <CNNaffinity_variance>
0.1692586839

$$$$



 35 40  0  0  0  0  0  0  0  0999 V2000
    7.6770    1.3638   22.0549 O   0  0  0  0  0  0  0  0  0  0  0  0
    7.2712   -0.0435   22.3790 C   0  0  0  0  0  0  0  0  0  0  0  0
    7.8536   -0.7353   23.5758 N   0  0  0  0  0  0  0  0  0  0  0  0
    7.4478   -2.1425   23.8999 C   0  0  0  0  0  0  0  0  0  0  0  0
    7.9963   -3.3864   23.2659 C   0  0  0  0  0  0  0  0  0  0  0  0
    7.3099   -4.5656   23.8890 C   0  0  0  0  0  0  0  0  0  0  0  0
    6.3371   -4.0505   24.9081 C   0  0  0  0  0  0  0  0  0  0  0  0
    6.4224   -2.5529   24.9148 C   0  0  0  0  0  0  0  0  0  0  0  0
    5.7886   -2.8066   25.5420 N   0  0  0  0  0  0  0  0  0  0  0  0
    6.4751   -1.6274   24.9189 C   0  0  0  0  0  0  0  0  0  0  0  0
    5.4126   -3.6969   25.8681 H   0  0  0  0  0  0  0  0  0  0  0  0
    4.7381   -2.7516   26.6113 C   0  0  0  0  0  0  0  0  0  0  0  0
    5.1391   -2.6184   28.0506 C   0  0  0  0  0  0  0  0  0  0  0  0
    5.6217   -3.5653   29.1091 C   0  0  0  0  0  0  0  0  0  0  0  0
    5.7061   -2.4301   30.0859 O   0  0  0  0  0  0  0  0  0  0  0  0
    5.2235   -1.4833   29.0274 C   0  0  0  0  0  0  0  0  0  0  0  0
    6.2831   -0.7590   21.5063 C   0  0  0  0  0  0  0  0  0  0  0  0
    5.7840   -0.1094   20.2497 C   0  0  0  0  0  0  0  0  0  0  0  0
    6.4942   -0.3461   18.9499 C   0  0  0  0  0  0  0  0  0  0  0  0
    5.9951    0.3035   17.6934 N   0  0  0  0  0  0  0  0  0  0  0  0
    4.7858    1.1898   17.7366 C   0  0  0  0  0  0  0  0  0  0  0  0
    4.0755    1.4266   19.0364 C   0  0  0  0  0  0  0  0  0  0  0  0
    2.8662    2.3129   19.0797 C   0  0  0  0  0  0  0  0  0  0  0  0
    2.1560    2.5497   20.3795 C   0  0  0  0  0  0  0  0  0  0  0  0
    2.6551    1.9001   21.6360 C   0  0  0  0  0  0  0  0  0  0  0  0
    3.8644    1.0137   21.5928 C   0  0  0  0  0  0  0  0  0  0  0  0
    4.5746    0.7770   20.2930 C   0  0  0  0  0  0  0  0  0  0  0  0
    8.8418   -0.0197   24.4485 C   0  0  0  0  0  0  0  0  0  0  0  0
   10.2667   -0.4849   24.5056 C   0  0  0  0  0  0  0  0  0  0  0  0
   11.2844    0.0994   23.5712 C   0  0  0  0  0  0  0  0  0  0  0  0
   12.7093   -0.3658   23.6283 C   0  0  0  0  0  0  0  0  0  0  0  0
   13.1165   -1.4153   24.6197 C   0  0  0  0  0  0  0  0  0  0  0  0
   12.0988   -1.9995   25.5541 C   0  0  0  0  0  0  0  0  0  0  0  0
   12.5060   -3.0489   26.5454 Cl  0  0  0  0  0  0  0  0  0  0  0  0
   10.6739   -1.5343   25.4970 C   0  0  0  0  0  0  0  0  0  0  0  0
  1  2  2  0  0  0
  2 17  1  0  0  0
 17 18  1  0  0  0
 18 19  2  0  0  0
 19 20  1  0  0  0
 20 21  2  0  0  0
 21 22  1  0  0  0
 22 23  2  0  0  0
 23 24  1  0  0  0
 24 25  2  0  0  0
 25 26  1  0  0  0
 26 27  2  0  0  0
  2  3  1  0  0  0
  3 28  1  0  0  0
 28 29  1  0  0  0
 29 30  2  0  0  0
 30 31  1  0  0  0
 31 32  2  0  0  0
 32 33  1  0  0  0
 33 34  1  0  0  0
 33 35  2  0  0  0
  4  3  1  0  0  0
  4  5  1  0  0  0
  5  6  1  0  0  0
  7  6  1  0  0  0
  7  8  1  0  0  0
  7  9  1  0  0  0
  9 12  1  0  0  0
 12 13  1  0  0  0
 13 14  1  0  0  0
 14 15  1  0  0  0
 15 16  1  0  0  0
  9 10  1  0  0  0
 27 18  1  0  0  0
 35 29  1  0  0  0
  8  4  1  0  0  0
 16 13  1  0  0  0
 27 22  1  0  0  0
 10  4  1  0  0  0
  9 11  1  0  0  0
M  CHG 1   9   1
M  END
> <minimizedAffinity>
-7.82925

> <CNNscore>
0.4666610658

> <CNNaffinity>
6.4442949295

> <CNN_VS>
3.0073015690

> <CNNaffinity_variance>
0.0703666359

$$$$



 35 40  0  0  0  0  0  0  0  0999 V2000
    8.7841    1.4553   21.1290 O   0  0  0  0  0  0  0  0  0  0  0  0
    7.9464    0.9800   22.2790 C   0  0  0  0  0  0  0  0  0  0  0  0
    8.5483    0.8653   23.6482 N   0  0  0  0  0  0  0  0  0  0  0  0
    7.7107    0.3900   24.7982 C   0  0  0  0  0  0  0  0  0  0  0  0
    6.7339    1.2183   25.5790 C   0  0  0  0  0  0  0  0  0  0  0  0
    6.1223    0.3433   26.6327 C   0  0  0  0  0  0  0  0  0  0  0  0
    6.7212   -1.0259   26.5031 C   0  0  0  0  0  0  0  0  0  0  0  0
    7.7028   -0.9970   25.3693 C   0  0  0  0  0  0  0  0  0  0  0  0
    7.6980   -1.8542   25.7223 N   0  0  0  0  0  0  0  0  0  0  0  0
    8.3095   -0.9791   24.6686 C   0  0  0  0  0  0  0  0  0  0  0  0
    7.1991   -2.3191   26.4809 H   0  0  0  0  0  0  0  0  0  0  0  0
    8.0086   -3.3032   25.9544 C   0  0  0  0  0  0  0  0  0  0  0  0
    9.3810   -3.7142   26.3992 C   0  0  0  0  0  0  0  0  0  0  0  0
   10.0156   -4.0375   27.7192 C   0  0  0  0  0  0  0  0  0  0  0  0
   11.3217   -4.2954   27.0281 O   0  0  0  0  0  0  0  0  0  0  0  0
   10.6870   -3.9720   25.7081 C   0  0  0  0  0  0  0  0  0  0  0  0
    6.5070    0.6195   22.0599 C   0  0  0  0  0  0  0  0  0  0  0  0
    5.9134    0.7048   20.6850 C   0  0  0  0  0  0  0  0  0  0  0  0
    6.5366   -0.0534   19.5506 C   0  0  0  0  0  0  0  0  0  0  0  0
    5.9430    0.0319   18.1757 N   0  0  0  0  0  0  0  0  0  0  0  0
    4.7263    0.8754   17.9351 C   0  0  0  0  0  0  0  0  0  0  0  0
    4.1030    1.6337   19.0695 C   0  0  0  0  0  0  0  0  0  0  0  0
    2.8863    2.4772   18.8289 C   0  0  0  0  0  0  0  0  0  0  0  0
    2.2631    3.2354   19.9632 C   0  0  0  0  0  0  0  0  0  0  0  0
    2.8567    3.1501   21.3381 C   0  0  0  0  0  0  0  0  0  0  0  0
    4.0734    2.3066   21.5787 C   0  0  0  0  0  0  0  0  0  0  0  0
    4.6966    1.5484   20.4444 C   0  0  0  0  0  0  0  0  0  0  0  0
    9.9878    1.2258   23.8673 C   0  0  0  0  0  0  0  0  0  0  0  0
   11.0608    0.2042   23.6332 C   0  0  0  0  0  0  0  0  0  0  0  0
   11.3555   -0.2683   22.2403 C   0  0  0  0  0  0  0  0  0  0  0  0
   12.4286   -1.2899   22.0062 C   0  0  0  0  0  0  0  0  0  0  0  0
   13.2069   -1.8391   23.1649 C   0  0  0  0  0  0  0  0  0  0  0  0
   12.9121   -1.3667   24.5577 C   0  0  0  0  0  0  0  0  0  0  0  0
   13.6905   -1.9160   25.7164 Cl  0  0  0  0  0  0  0  0  0  0  0  0
   11.8391   -0.3451   24.7919 C   0  0  0  0  0  0  0  0  0  0  0  0
  1  2  2  0  0  0
  2 17  1  0  0  0
 17 18  1  0  0  0
 18 19  2  0  0  0
 19 20  1  0  0  0
 20 21  2  0  0  0
 21 22  1  0  0  0
 22 23  2  0  0  0
 23 24  1  0  0  0
 24 25  2  0  0  0
 25 26  1  0  0  0
 26 27  2  0  0  0
  2  3  1  0  0  0
  3 28  1  0  0  0
 28 29  1  0  0  0
 29 30  2  0  0  0
 30 31  1  0  0  0
 31 32  2  0  0  0
 32 33  1  0  0  0
 33 34  1  0  0  0
 33 35  2  0  0  0
  4  3  1  0  0  0
  4  5  1  0  0  0
  5  6  1  0  0  0
  7  6  1  0  0  0
  7  8  1  0  0  0
  7  9  1  0  0  0
  9 12  1  0  0  0
 12 13  1  0  0  0
 13 14  1  0  0  0
 14 15  1  0  0  0
 15 16  1  0  0  0
  9 10  1  0  0  0
 27 18  1  0  0  0
 35 29  1  0  0  0
  8  4  1  0  0  0
 16 13  1  0  0  0
 27 22  1  0  0  0
 10  4  1  0  0  0
  9 11  1  0  0  0
M  CHG 1   9   1
M  END
> <minimizedAffinity>
-8.09329

> <CNNscore>
0.4605954885

> <CNNaffinity>
6.6171975136

> <CNN_VS>
3.0478513241

> <CNNaffinity_variance>
0.1507155448

$$$$
