


 40 44  0  0  0  0  0  0  0  0999 V2000
   -8.2773   -1.5934  -22.1960 C   0  0  0  0  0  0  0  0  0  0  0  0
   -8.9750   -0.2678  -22.1173 C   0  0  0  0  0  0  0  0  0  0  0  0
  -10.0891   -0.2701  -23.1217 N   0  0  0  0  0  0  0  0  0  0  0  0
  -10.0798   -1.5970  -23.8212 C   0  0  0  0  0  0  0  0  0  0  0  0
  -11.0245   -2.0301  -24.9029 O   0  0  0  0  0  0  0  0  0  0  0  0
   -8.9601   -2.4149  -23.2491 C   0  0  0  0  0  0  0  0  0  0  0  0
   -9.7390   -3.1141  -24.3234 C   0  0  0  0  0  0  0  0  0  0  0  0
   -9.3673   -4.5085  -24.7325 N   0  0  0  0  0  0  0  0  0  0  0  0
   -8.2167   -5.2038  -24.0672 C   0  0  0  0  0  0  0  0  0  0  0  0
   -7.8450   -6.5982  -24.4763 O   0  0  0  0  0  0  0  0  0  0  0  0
   -7.4377   -4.5046  -22.9928 C   0  0  0  0  0  0  0  0  0  0  0  0
   -6.2871   -5.1998  -22.3275 C   0  0  0  0  0  0  0  0  0  0  0  0
   -5.5081   -4.5006  -21.2531 C   0  0  0  0  0  0  0  0  0  0  0  0
   -5.8798   -3.1062  -20.8441 C   0  0  0  0  0  0  0  0  0  0  0  0
   -5.1667   -2.6632  -19.9656 Cl  0  0  0  0  0  0  0  0  0  0  0  0
   -7.0304   -2.4109  -21.5093 C   0  0  0  0  0  0  0  0  0  0  0  0
   -7.8094   -3.1101  -22.5837 C   0  0  0  0  0  0  0  0  0  0  0  0
  -11.0446    0.8567  -23.3812 C   0  0  0  0  0  0  0  0  0  0  0  0
  -12.5171    0.6520  -23.1826 C   0  0  0  0  0  0  0  0  0  0  0  0
  -13.4727    1.7788  -23.4420 N   0  0  0  0  0  0  0  0  0  0  0  0
  -12.9555    3.1102  -23.9001 C   0  0  0  0  0  0  0  0  0  0  0  0
  -11.4829    3.3149  -24.0987 C   0  0  0  0  0  0  0  0  0  0  0  0
  -10.9658    4.6464  -24.5568 C   0  0  0  0  0  0  0  0  0  0  0  0
   -9.4931    4.8509  -24.7555 C   0  0  0  0  0  0  0  0  0  0  0  0
   -8.5377    3.7241  -24.4960 C   0  0  0  0  0  0  0  0  0  0  0  0
   -9.0548    2.3927  -24.0379 C   0  0  0  0  0  0  0  0  0  0  0  0
  -10.5274    2.1881  -23.8393 C   0  0  0  0  0  0  0  0  0  0  0  0
   -7.1029   -2.0221  -21.3672 N   0  0  0  0  0  0  0  0  0  0  0  0
   -6.6436   -2.9131  -21.5559 H   0  0  0  0  0  0  0  0  0  0  0  0
   -6.6038   -1.1406  -20.2608 S   0  0  0  0  0  0  0  0  0  0  0  0
   -5.6436   -1.8183  -19.9531 O   0  0  0  0  0  0  0  0  0  0  0  0
   -7.7370   -0.1893  -20.5077 O   0  0  0  0  0  0  0  0  0  0  0  0
   -4.8043    0.4725  -19.3071 C   0  0  0  0  0  0  0  0  0  0  0  0
   -6.1049   -0.2591  -19.1545 C   0  0  0  0  0  0  0  0  0  0  0  0
  -10.1463   -5.2077  -25.8070 C   0  0  0  0  0  0  0  0  0  0  0  0
   -9.5243   -5.4440  -27.1512 C   0  0  0  0  0  0  0  0  0  0  0  0
   -9.4346   -4.3229  -28.1437 O   0  0  0  0  0  0  0  0  0  0  0  0
   -8.9920   -6.8015  -27.5031 N   0  0  0  0  0  0  0  0  0  0  0  0
   -8.3700   -7.0379  -28.8475 C   0  0  0  0  0  0  0  0  0  0  0  0
   -9.0510   -7.5374  -26.8517 H   0  0  0  0  0  0  0  0  0  0  0  0
 33 34  1  0  0  0
 34 30  1  0  0  0
 30 31  2  0  0  0
 30 32  2  0  0  0
 30 28  1  0  0  0
  1 28  1  0  0  0
  1  2  1  0  0  0
  2  3  1  0  0  0
  3 18  1  0  0  0
 18 19  2  0  0  0
 19 20  1  0  0  0
 20 21  2  0  0  0
 21 22  1  0  0  0
 22 23  2  0  0  0
 23 24  1  0  0  0
 24 25  2  0  0  0
 25 26  1  0  0  0
 26 27  2  0  0  0
  3  4  1  0  0  0
  4  5  2  0  0  0
  4  6  1  0  0  0
  6  7  1  0  0  0
  7  8  1  0  0  0
  8 35  1  0  0  0
 35 36  1  0  0  0
 36 37  2  0  0  0
 36 38  1  0  0  0
 38 39  1  0  0  0
  8  9  1  0  0  0
  9 10  2  0  0  0
  9 11  1  0  0  0
 11 12  2  0  0  0
 12 13  1  0  0  0
 13 14  2  0  0  0
 14 15  1  0  0  0
 14 16  1  0  0  0
 16 17  2  0  0  0
  6  1  1  0  0  0
 17 11  1  0  0  0
 27 18  1  0  0  0
 17  6  1  0  0  0
 27 22  1  0  0  0
 28 29  1  0  0  0
 38 40  1  0  0  0
M  END
> <minimizedAffinity>
-9.01479

> <CNNscore>
0.6048936248

> <CNNaffinity>
6.4973058701

> <CNN_VS>
3.9301788807

> <CNNaffinity_variance>
0.2042976618

$$$$



 40 44  0  0  0  0  0  0  0  0999 V2000
   -6.5854   -4.1197  -22.7811 C   0  0  0  0  0  0  0  0  0  0  0  0
   -5.7126   -3.5718  -21.6912 C   0  0  0  0  0  0  0  0  0  0  0  0
   -6.3078   -2.2750  -21.2286 N   0  0  0  0  0  0  0  0  0  0  0  0
   -7.5485   -2.0215  -22.0326 C   0  0  0  0  0  0  0  0  0  0  0  0
   -8.4580   -0.8360  -21.9003 O   0  0  0  0  0  0  0  0  0  0  0  0
   -7.7201   -3.1616  -22.9921 C   0  0  0  0  0  0  0  0  0  0  0  0
   -8.7911   -2.1160  -23.0893 C   0  0  0  0  0  0  0  0  0  0  0  0
   -9.9023   -2.2708  -24.0850 N   0  0  0  0  0  0  0  0  0  0  0  0
   -9.9424   -3.4712  -24.9835 C   0  0  0  0  0  0  0  0  0  0  0  0
  -11.0535   -3.6260  -25.9792 O   0  0  0  0  0  0  0  0  0  0  0  0
   -8.8713   -4.5169  -24.8864 C   0  0  0  0  0  0  0  0  0  0  0  0
   -8.9114   -5.7173  -25.7849 C   0  0  0  0  0  0  0  0  0  0  0  0
   -7.8404   -6.7630  -25.6877 C   0  0  0  0  0  0  0  0  0  0  0  0
   -6.7292   -6.6082  -24.6920 C   0  0  0  0  0  0  0  0  0  0  0  0
   -5.9337   -7.5261  -24.7218 Cl  0  0  0  0  0  0  0  0  0  0  0  0
   -6.6891   -5.4077  -23.7935 C   0  0  0  0  0  0  0  0  0  0  0  0
   -7.7602   -4.3621  -23.8907 C   0  0  0  0  0  0  0  0  0  0  0  0
   -5.7588   -1.3875  -20.1511 C   0  0  0  0  0  0  0  0  0  0  0  0
   -6.1972   -1.5752  -18.7290 C   0  0  0  0  0  0  0  0  0  0  0  0
   -5.6482   -0.6877  -17.6516 N   0  0  0  0  0  0  0  0  0  0  0  0
   -4.6607    0.3875  -17.9963 C   0  0  0  0  0  0  0  0  0  0  0  0
   -4.2223    0.5751  -19.4185 C   0  0  0  0  0  0  0  0  0  0  0  0
   -3.2347    1.6504  -19.7632 C   0  0  0  0  0  0  0  0  0  0  0  0
   -2.7963    1.8380  -21.1854 C   0  0  0  0  0  0  0  0  0  0  0  0
   -3.3454    0.9505  -22.2627 C   0  0  0  0  0  0  0  0  0  0  0  0
   -4.3329   -0.1247  -21.9180 C   0  0  0  0  0  0  0  0  0  0  0  0
   -4.7713   -0.3124  -20.4959 C   0  0  0  0  0  0  0  0  0  0  0  0
   -6.3627   -5.4009  -23.5288 N   0  0  0  0  0  0  0  0  0  0  0  0
   -7.0086   -5.6791  -24.2676 H   0  0  0  0  0  0  0  0  0  0  0  0
   -5.1901   -6.2729  -23.1902 S   0  0  0  0  0  0  0  0  0  0  0  0
   -4.4410   -5.8546  -24.0503 O   0  0  0  0  0  0  0  0  0  0  0  0
   -5.9779   -6.9004  -22.0785 O   0  0  0  0  0  0  0  0  0  0  0  0
   -2.6878   -6.8991  -23.5003 C   0  0  0  0  0  0  0  0  0  0  0  0
   -4.0176   -7.1450  -22.8514 C   0  0  0  0  0  0  0  0  0  0  0  0
  -10.9734   -1.2251  -24.1822 C   0  0  0  0  0  0  0  0  0  0  0  0
  -12.2332   -1.3651  -23.3802 C   0  0  0  0  0  0  0  0  0  0  0  0
  -13.2704   -0.2822  -23.4178 O   0  0  0  0  0  0  0  0  0  0  0  0
  -12.4557   -2.5879  -22.5406 N   0  0  0  0  0  0  0  0  0  0  0  0
  -13.7155   -2.7280  -21.7385 C   0  0  0  0  0  0  0  0  0  0  0  0
  -11.7749   -3.2987  -22.5159 H   0  0  0  0  0  0  0  0  0  0  0  0
 33 34  1  0  0  0
 34 30  1  0  0  0
 30 31  2  0  0  0
 30 32  2  0  0  0
 30 28  1  0  0  0
  1 28  1  0  0  0
  1  2  1  0  0  0
  2  3  1  0  0  0
  3 18  1  0  0  0
 18 19  2  0  0  0
 19 20  1  0  0  0
 20 21  2  0  0  0
 21 22  1  0  0  0
 22 23  2  0  0  0
 23 24  1  0  0  0
 24 25  2  0  0  0
 25 26  1  0  0  0
 26 27  2  0  0  0
  3  4  1  0  0  0
  4  5  2  0  0  0
  4  6  1  0  0  0
  6  7  1  0  0  0
  7  8  1  0  0  0
  8 35  1  0  0  0
 35 36  1  0  0  0
 36 37  2  0  0  0
 36 38  1  0  0  0
 38 39  1  0  0  0
  8  9  1  0  0  0
  9 10  2  0  0  0
  9 11  1  0  0  0
 11 12  2  0  0  0
 12 13  1  0  0  0
 13 14  2  0  0  0
 14 15  1  0  0  0
 14 16  1  0  0  0
 16 17  2  0  0  0
  6  1  1  0  0  0
 17 11  1  0  0  0
 27 18  1  0  0  0
 17  6  1  0  0  0
 27 22  1  0  0  0
 28 29  1  0  0  0
 38 40  1  0  0  0
M  END
> <minimizedAffinity>
-8.08972

> <CNNscore>
0.5689076185

> <CNNaffinity>
6.6950125694

> <CNN_VS>
3.8088436127

> <CNNaffinity_variance>
0.1812668890

$$$$



 40 44  0  0  0  0  0  0  0  0999 V2000
   -8.2990   -0.7558  -22.0793 C   0  0  0  0  0  0  0  0  0  0  0  0
   -8.9851    0.5770  -22.0244 C   0  0  0  0  0  0  0  0  0  0  0  0
  -10.1370    0.5452  -22.9847 N   0  0  0  0  0  0  0  0  0  0  0  0
  -10.1627   -0.8072  -23.6331 C   0  0  0  0  0  0  0  0  0  0  0  0
  -11.1509   -1.2735  -24.6607 O   0  0  0  0  0  0  0  0  0  0  0  0
   -9.0268   -1.6113  -23.0735 C   0  0  0  0  0  0  0  0  0  0  0  0
   -9.8508   -2.3446  -24.0900 C   0  0  0  0  0  0  0  0  0  0  0  0
   -9.5036   -3.7562  -24.4597 N   0  0  0  0  0  0  0  0  0  0  0  0
   -8.3325   -4.4346  -23.8129 C   0  0  0  0  0  0  0  0  0  0  0  0
   -7.9854   -5.8463  -24.1827 O   0  0  0  0  0  0  0  0  0  0  0  0
   -7.5085   -3.7013  -22.7964 C   0  0  0  0  0  0  0  0  0  0  0  0
   -6.3375   -4.3796  -22.1496 C   0  0  0  0  0  0  0  0  0  0  0  0
   -5.5135   -3.6463  -21.1331 C   0  0  0  0  0  0  0  0  0  0  0  0
   -5.8607   -2.2346  -20.7633 C   0  0  0  0  0  0  0  0  0  0  0  0
   -5.1117   -1.7642  -19.9302 Cl  0  0  0  0  0  0  0  0  0  0  0  0
   -7.0318   -1.5563  -21.4101 C   0  0  0  0  0  0  0  0  0  0  0  0
   -7.8557   -2.2896  -22.4266 C   0  0  0  0  0  0  0  0  0  0  0  0
  -11.0949    1.6686  -23.2501 C   0  0  0  0  0  0  0  0  0  0  0  0
  -12.3336    1.8107  -22.4163 C   0  0  0  0  0  0  0  0  0  0  0  0
  -13.2915    2.9341  -22.6817 N   0  0  0  0  0  0  0  0  0  0  0  0
  -13.0106    3.9154  -23.7809 C   0  0  0  0  0  0  0  0  0  0  0  0
  -11.7718    3.7732  -24.6147 C   0  0  0  0  0  0  0  0  0  0  0  0
  -11.4909    4.7546  -25.7139 C   0  0  0  0  0  0  0  0  0  0  0  0
  -10.2520    4.6123  -26.5477 C   0  0  0  0  0  0  0  0  0  0  0  0
   -9.2942    3.4890  -26.2822 C   0  0  0  0  0  0  0  0  0  0  0  0
   -9.5751    2.5077  -25.1831 C   0  0  0  0  0  0  0  0  0  0  0  0
  -10.8139    2.6498  -24.3493 C   0  0  0  0  0  0  0  0  0  0  0  0
   -7.0963   -1.1618  -21.2802 N   0  0  0  0  0  0  0  0  0  0  0  0
   -6.8952   -2.1501  -21.1278 H   0  0  0  0  0  0  0  0  0  0  0  0
   -6.1893   -0.1146  -20.7051 S   0  0  0  0  0  0  0  0  0  0  0  0
   -6.6895   -0.0767  -19.5986 O   0  0  0  0  0  0  0  0  0  0  0  0
   -5.4556   -0.0331  -22.0110 O   0  0  0  0  0  0  0  0  0  0  0  0
   -4.7172    2.0036  -21.0156 C   0  0  0  0  0  0  0  0  0  0  0  0
   -5.2822    0.9326  -20.1302 C   0  0  0  0  0  0  0  0  0  0  0  0
  -10.3276   -4.4896  -25.4763 C   0  0  0  0  0  0  0  0  0  0  0  0
   -9.7408   -4.8277  -26.8147 C   0  0  0  0  0  0  0  0  0  0  0  0
   -9.6605   -3.7797  -27.8848 O   0  0  0  0  0  0  0  0  0  0  0  0
   -9.2344   -6.2139  -27.0829 N   0  0  0  0  0  0  0  0  0  0  0  0
   -8.6476   -6.5522  -28.4213 C   0  0  0  0  0  0  0  0  0  0  0  0
   -9.2872   -6.9018  -26.3805 H   0  0  0  0  0  0  0  0  0  0  0  0
 33 34  1  0  0  0
 34 30  1  0  0  0
 30 31  2  0  0  0
 30 32  2  0  0  0
 30 28  1  0  0  0
  1 28  1  0  0  0
  1  2  1  0  0  0
  2  3  1  0  0  0
  3 18  1  0  0  0
 18 19  2  0  0  0
 19 20  1  0  0  0
 20 21  2  0  0  0
 21 22  1  0  0  0
 22 23  2  0  0  0
 23 24  1  0  0  0
 24 25  2  0  0  0
 25 26  1  0  0  0
 26 27  2  0  0  0
  3  4  1  0  0  0
  4  5  2  0  0  0
  4  6  1  0  0  0
  6  7  1  0  0  0
  7  8  1  0  0  0
  8 35  1  0  0  0
 35 36  1  0  0  0
 36 37  2  0  0  0
 36 38  1  0  0  0
 38 39  1  0  0  0
  8  9  1  0  0  0
  9 10  2  0  0  0
  9 11  1  0  0  0
 11 12  2  0  0  0
 12 13  1  0  0  0
 13 14  2  0  0  0
 14 15  1  0  0  0
 14 16  1  0  0  0
 16 17  2  0  0  0
  6  1  1  0  0  0
 17 11  1  0  0  0
 27 18  1  0  0  0
 17  6  1  0  0  0
 27 22  1  0  0  0
 28 29  1  0  0  0
 38 40  1  0  0  0
M  END
> <minimizedAffinity>
-8.30153

> <CNNscore>
0.5233848095

> <CNNaffinity>
6.5270996094

> <CNN_VS>
3.4161849022

> <CNNaffinity_variance>
0.0676228181

$$$$



 40 44  0  0  0  0  0  0  0  0999 V2000
   -8.2863   -2.6846  -22.7952 C   0  0  0  0  0  0  0  0  0  0  0  0
   -8.0047   -1.5554  -21.8489 C   0  0  0  0  0  0  0  0  0  0  0  0
   -6.7341   -1.8702  -21.1166 N   0  0  0  0  0  0  0  0  0  0  0  0
   -6.2303   -3.1940  -21.6102 C   0  0  0  0  0  0  0  0  0  0  0  0
   -4.9858   -3.8919  -21.1476 O   0  0  0  0  0  0  0  0  0  0  0  0
   -7.1896   -3.6974  -22.6477 C   0  0  0  0  0  0  0  0  0  0  0  0
   -6.0308   -4.6148  -22.3920 C   0  0  0  0  0  0  0  0  0  0  0  0
   -5.9140   -5.9045  -23.1490 N   0  0  0  0  0  0  0  0  0  0  0  0
   -6.9560   -6.2767  -24.1618 C   0  0  0  0  0  0  0  0  0  0  0  0
   -6.8392   -7.5664  -24.9188 O   0  0  0  0  0  0  0  0  0  0  0  0
   -8.1149   -5.3593  -24.4175 C   0  0  0  0  0  0  0  0  0  0  0  0
   -9.1568   -5.7315  -25.4303 C   0  0  0  0  0  0  0  0  0  0  0  0
  -10.3156   -4.8140  -25.6860 C   0  0  0  0  0  0  0  0  0  0  0  0
  -10.4324   -3.5244  -24.9290 C   0  0  0  0  0  0  0  0  0  0  0  0
  -11.4169   -2.8815  -25.2355 Cl  0  0  0  0  0  0  0  0  0  0  0  0
   -9.3905   -3.1521  -23.9162 C   0  0  0  0  0  0  0  0  0  0  0  0
   -8.2317   -4.0696  -23.6605 C   0  0  0  0  0  0  0  0  0  0  0  0
   -6.0817   -1.0119  -20.0736 C   0  0  0  0  0  0  0  0  0  0  0  0
   -6.6052   -1.0112  -18.6680 C   0  0  0  0  0  0  0  0  0  0  0  0
   -5.9528   -0.1529  -17.6251 N   0  0  0  0  0  0  0  0  0  0  0  0
   -4.7769    0.7048  -17.9879 C   0  0  0  0  0  0  0  0  0  0  0  0
   -4.2534    0.7041  -19.3936 C   0  0  0  0  0  0  0  0  0  0  0  0
   -3.0774    1.5619  -19.7564 C   0  0  0  0  0  0  0  0  0  0  0  0
   -2.5540    1.5612  -21.1621 C   0  0  0  0  0  0  0  0  0  0  0  0
   -3.2064    0.7029  -22.2049 C   0  0  0  0  0  0  0  0  0  0  0  0
   -4.3823   -0.1548  -21.8421 C   0  0  0  0  0  0  0  0  0  0  0  0
   -4.9058   -0.1542  -20.4365 C   0  0  0  0  0  0  0  0  0  0  0  0
   -9.4586   -2.7838  -23.7257 N   0  0  0  0  0  0  0  0  0  0  0  0
   -9.4393   -3.4454  -24.5017 H   0  0  0  0  0  0  0  0  0  0  0  0
  -10.6595   -1.9099  -23.5150 S   0  0  0  0  0  0  0  0  0  0  0  0
  -11.2467   -2.6473  -22.7486 O   0  0  0  0  0  0  0  0  0  0  0  0
  -10.0764   -0.8852  -24.4425 O   0  0  0  0  0  0  0  0  0  0  0  0
  -11.8221    0.4043  -23.7216 C   0  0  0  0  0  0  0  0  0  0  0  0
  -11.8603   -1.0360  -23.3044 C   0  0  0  0  0  0  0  0  0  0  0  0
   -4.7552   -6.8220  -22.8933 C   0  0  0  0  0  0  0  0  0  0  0  0
   -3.5656   -6.8003  -23.8067 C   0  0  0  0  0  0  0  0  0  0  0  0
   -3.7620   -6.7913  -25.2938 O   0  0  0  0  0  0  0  0  0  0  0  0
   -2.1797   -6.7877  -23.2331 N   0  0  0  0  0  0  0  0  0  0  0  0
   -0.9901   -6.7661  -24.1466 C   0  0  0  0  0  0  0  0  0  0  0  0
   -2.0508   -6.7937  -22.2571 H   0  0  0  0  0  0  0  0  0  0  0  0
 33 34  1  0  0  0
 34 30  1  0  0  0
 30 31  2  0  0  0
 30 32  2  0  0  0
 30 28  1  0  0  0
  1 28  1  0  0  0
  1  2  1  0  0  0
  2  3  1  0  0  0
  3 18  1  0  0  0
 18 19  2  0  0  0
 19 20  1  0  0  0
 20 21  2  0  0  0
 21 22  1  0  0  0
 22 23  2  0  0  0
 23 24  1  0  0  0
 24 25  2  0  0  0
 25 26  1  0  0  0
 26 27  2  0  0  0
  3  4  1  0  0  0
  4  5  2  0  0  0
  4  6  1  0  0  0
  6  7  1  0  0  0
  7  8  1  0  0  0
  8 35  1  0  0  0
 35 36  1  0  0  0
 36 37  2  0  0  0
 36 38  1  0  0  0
 38 39  1  0  0  0
  8  9  1  0  0  0
  9 10  2  0  0  0
  9 11  1  0  0  0
 11 12  2  0  0  0
 12 13  1  0  0  0
 13 14  2  0  0  0
 14 15  1  0  0  0
 14 16  1  0  0  0
 16 17  2  0  0  0
  6  1  1  0  0  0
 17 11  1  0  0  0
 27 18  1  0  0  0
 17  6  1  0  0  0
 27 22  1  0  0  0
 28 29  1  0  0  0
 38 40  1  0  0  0
M  END
> <minimizedAffinity>
-8.09636

> <CNNscore>
0.4195357561

> <CNNaffinity>
6.4211339951

> <CNN_VS>
2.6938953400

> <CNNaffinity_variance>
0.1685856581

$$$$



 40 44  0  0  0  0  0  0  0  0999 V2000
   -8.3249   -3.3480  -24.3601 C   0  0  0  0  0  0  0  0  0  0  0  0
   -8.8786   -2.1202  -25.0202 C   0  0  0  0  0  0  0  0  0  0  0  0
   -8.3846   -0.9237  -24.2623 N   0  0  0  0  0  0  0  0  0  0  0  0
   -7.5255   -1.4121  -23.1339 C   0  0  0  0  0  0  0  0  0  0  0  0
   -6.8261   -0.5530  -22.1226 O   0  0  0  0  0  0  0  0  0  0  0  0
   -7.4886   -2.9104  -23.1943 C   0  0  0  0  0  0  0  0  0  0  0  0
   -6.6893   -2.3254  -22.0678 C   0  0  0  0  0  0  0  0  0  0  0  0
   -5.9465   -3.2277  -21.1275 N   0  0  0  0  0  0  0  0  0  0  0  0
   -6.0030   -4.7150  -21.3137 C   0  0  0  0  0  0  0  0  0  0  0  0
   -5.2602   -5.6173  -20.3734 O   0  0  0  0  0  0  0  0  0  0  0  0
   -6.8023   -5.3001  -22.4402 C   0  0  0  0  0  0  0  0  0  0  0  0
   -6.8588   -6.7874  -22.6263 C   0  0  0  0  0  0  0  0  0  0  0  0
   -7.6580   -7.3724  -23.7528 C   0  0  0  0  0  0  0  0  0  0  0  0
   -8.4008   -6.4701  -24.6931 C   0  0  0  0  0  0  0  0  0  0  0  0
   -9.0042   -7.0768  -25.5558 Cl  0  0  0  0  0  0  0  0  0  0  0  0
   -8.3443   -4.9828  -24.5069 C   0  0  0  0  0  0  0  0  0  0  0  0
   -7.5451   -4.3978  -23.3805 C   0  0  0  0  0  0  0  0  0  0  0  0
   -8.6951    0.5096  -24.5776 C   0  0  0  0  0  0  0  0  0  0  0  0
   -7.6611    1.3735  -25.2365 C   0  0  0  0  0  0  0  0  0  0  0  0
   -7.9716    2.8068  -25.5518 N   0  0  0  0  0  0  0  0  0  0  0  0
   -9.3161    3.3760  -25.2080 C   0  0  0  0  0  0  0  0  0  0  0  0
  -10.3501    2.5120  -24.5490 C   0  0  0  0  0  0  0  0  0  0  0  0
  -11.6947    3.0813  -24.2052 C   0  0  0  0  0  0  0  0  0  0  0  0
  -12.7287    2.2172  -23.5462 C   0  0  0  0  0  0  0  0  0  0  0  0
  -12.4181    0.7840  -23.2310 C   0  0  0  0  0  0  0  0  0  0  0  0
  -11.0736    0.2148  -23.5748 C   0  0  0  0  0  0  0  0  0  0  0  0
  -10.0396    1.0787  -24.2337 C   0  0  0  0  0  0  0  0  0  0  0  0
   -8.5652   -4.7648  -24.7903 N   0  0  0  0  0  0  0  0  0  0  0  0
   -8.4217   -5.5294  -24.1306 H   0  0  0  0  0  0  0  0  0  0  0  0
   -9.0167   -5.0572  -26.1905 S   0  0  0  0  0  0  0  0  0  0  0  0
   -7.9159   -5.0557  -26.7045 O   0  0  0  0  0  0  0  0  0  0  0  0
  -10.4416   -5.0950  -25.7231 O   0  0  0  0  0  0  0  0  0  0  0  0
   -8.7026   -6.3220  -28.4381 C   0  0  0  0  0  0  0  0  0  0  0  0
   -9.4683   -5.3496  -27.5907 C   0  0  0  0  0  0  0  0  0  0  0  0
   -5.1473   -2.6426  -20.0011 C   0  0  0  0  0  0  0  0  0  0  0  0
   -5.7510   -1.5880  -19.1218 C   0  0  0  0  0  0  0  0  0  0  0  0
   -7.2151   -1.6291  -18.7983 O   0  0  0  0  0  0  0  0  0  0  0  0
   -4.8905   -0.4922  -18.5660 N   0  0  0  0  0  0  0  0  0  0  0  0
   -5.4942    0.5626  -17.6867 C   0  0  0  0  0  0  0  0  0  0  0  0
   -3.9296   -0.4652  -18.7784 H   0  0  0  0  0  0  0  0  0  0  0  0
 33 34  1  0  0  0
 34 30  1  0  0  0
 30 31  2  0  0  0
 30 32  2  0  0  0
 30 28  1  0  0  0
  1 28  1  0  0  0
  1  2  1  0  0  0
  2  3  1  0  0  0
  3 18  1  0  0  0
 18 19  2  0  0  0
 19 20  1  0  0  0
 20 21  2  0  0  0
 21 22  1  0  0  0
 22 23  2  0  0  0
 23 24  1  0  0  0
 24 25  2  0  0  0
 25 26  1  0  0  0
 26 27  2  0  0  0
  3  4  1  0  0  0
  4  5  2  0  0  0
  4  6  1  0  0  0
  6  7  1  0  0  0
  7  8  1  0  0  0
  8 35  1  0  0  0
 35 36  1  0  0  0
 36 37  2  0  0  0
 36 38  1  0  0  0
 38 39  1  0  0  0
  8  9  1  0  0  0
  9 10  2  0  0  0
  9 11  1  0  0  0
 11 12  2  0  0  0
 12 13  1  0  0  0
 13 14  2  0  0  0
 14 15  1  0  0  0
 14 16  1  0  0  0
 16 17  2  0  0  0
  6  1  1  0  0  0
 17 11  1  0  0  0
 27 18  1  0  0  0
 17  6  1  0  0  0
 27 22  1  0  0  0
 28 29  1  0  0  0
 38 40  1  0  0  0
M  END
> <minimizedAffinity>
-8.53201

> <CNNscore>
0.4008992910

> <CNNaffinity>
6.3560342789

> <CNN_VS>
2.5481295586

> <CNNaffinity_variance>
0.3062420487

$$$$



 40 44  0  0  0  0  0  0  0  0999 V2000
   -7.3509   -2.3692  -23.0093 C   0  0  0  0  0  0  0  0  0  0  0  0
   -6.0304   -2.0413  -22.3778 C   0  0  0  0  0  0  0  0  0  0  0  0
   -6.1073   -0.6421  -21.8427 N   0  0  0  0  0  0  0  0  0  0  0  0
   -7.4753   -0.1054  -22.1435 C   0  0  0  0  0  0  0  0  0  0  0  0
   -7.9852    1.2593  -21.7859 O   0  0  0  0  0  0  0  0  0  0  0  0
   -8.2439   -1.1728  -22.8645 C   0  0  0  0  0  0  0  0  0  0  0  0
   -9.0172    0.0938  -22.6461 C   0  0  0  0  0  0  0  0  0  0  0  0
  -10.4306    0.2036  -23.1362 N   0  0  0  0  0  0  0  0  0  0  0  0
  -11.0707   -0.9532  -23.8447 C   0  0  0  0  0  0  0  0  0  0  0  0
  -12.4841   -0.8434  -24.3349 O   0  0  0  0  0  0  0  0  0  0  0  0
  -10.2974   -2.2199  -24.0632 C   0  0  0  0  0  0  0  0  0  0  0  0
  -10.9376   -3.3767  -24.7717 C   0  0  0  0  0  0  0  0  0  0  0  0
  -10.1643   -4.6432  -24.9900 C   0  0  0  0  0  0  0  0  0  0  0  0
   -8.7509   -4.7530  -24.4999 C   0  0  0  0  0  0  0  0  0  0  0  0
   -8.2462   -5.8311  -24.7439 Cl  0  0  0  0  0  0  0  0  0  0  0  0
   -8.1107   -3.5962  -23.7914 C   0  0  0  0  0  0  0  0  0  0  0  0
   -8.8840   -2.3296  -23.5730 C   0  0  0  0  0  0  0  0  0  0  0  0
   -5.0091    0.0915  -21.1316 C   0  0  0  0  0  0  0  0  0  0  0  0
   -5.1400    0.4049  -19.6707 C   0  0  0  0  0  0  0  0  0  0  0  0
   -4.0417    1.1385  -18.9596 N   0  0  0  0  0  0  0  0  0  0  0  0
   -2.8126    1.5587  -19.7096 C   0  0  0  0  0  0  0  0  0  0  0  0
   -2.6816    1.2453  -21.1706 C   0  0  0  0  0  0  0  0  0  0  0  0
   -1.4523    1.6655  -21.9206 C   0  0  0  0  0  0  0  0  0  0  0  0
   -1.3215    1.3520  -23.3816 C   0  0  0  0  0  0  0  0  0  0  0  0
   -2.4197    0.6184  -24.0926 C   0  0  0  0  0  0  0  0  0  0  0  0
   -3.6489    0.1983  -23.3426 C   0  0  0  0  0  0  0  0  0  0  0  0
   -3.7799    0.5117  -21.8817 C   0  0  0  0  0  0  0  0  0  0  0  0
   -7.7145   -3.6660  -23.6698 N   0  0  0  0  0  0  0  0  0  0  0  0
   -8.5890   -3.7465  -24.1886 H   0  0  0  0  0  0  0  0  0  0  0  0
   -6.7922   -4.8445  -23.5673 S   0  0  0  0  0  0  0  0  0  0  0  0
   -7.2545   -5.3058  -22.5428 O   0  0  0  0  0  0  0  0  0  0  0  0
   -6.1039   -4.4154  -24.8291 O   0  0  0  0  0  0  0  0  0  0  0  0
   -6.0555   -7.0275  -22.3665 C   0  0  0  0  0  0  0  0  0  0  0  0
   -5.8699   -6.0230  -23.4649 C   0  0  0  0  0  0  0  0  0  0  0  0
  -11.2039    1.4703  -22.9178 C   0  0  0  0  0  0  0  0  0  0  0  0
  -10.8540    2.7058  -23.6931 C   0  0  0  0  0  0  0  0  0  0  0  0
  -10.0505    2.5969  -24.9550 O   0  0  0  0  0  0  0  0  0  0  0  0
  -11.3076    4.0501  -23.2064 N   0  0  0  0  0  0  0  0  0  0  0  0
  -10.9576    5.2857  -23.9817 C   0  0  0  0  0  0  0  0  0  0  0  0
  -11.8349    4.1216  -22.3781 H   0  0  0  0  0  0  0  0  0  0  0  0
 33 34  1  0  0  0
 34 30  1  0  0  0
 30 31  2  0  0  0
 30 32  2  0  0  0
 30 28  1  0  0  0
  1 28  1  0  0  0
  1  2  1  0  0  0
  2  3  1  0  0  0
  3 18  1  0  0  0
 18 19  2  0  0  0
 19 20  1  0  0  0
 20 21  2  0  0  0
 21 22  1  0  0  0
 22 23  2  0  0  0
 23 24  1  0  0  0
 24 25  2  0  0  0
 25 26  1  0  0  0
 26 27  2  0  0  0
  3  4  1  0  0  0
  4  5  2  0  0  0
  4  6  1  0  0  0
  6  7  1  0  0  0
  7  8  1  0  0  0
  8 35  1  0  0  0
 35 36  1  0  0  0
 36 37  2  0  0  0
 36 38  1  0  0  0
 38 39  1  0  0  0
  8  9  1  0  0  0
  9 10  2  0  0  0
  9 11  1  0  0  0
 11 12  2  0  0  0
 12 13  1  0  0  0
 13 14  2  0  0  0
 14 15  1  0  0  0
 14 16  1  0  0  0
 16 17  2  0  0  0
  6  1  1  0  0  0
 17 11  1  0  0  0
 27 18  1  0  0  0
 17  6  1  0  0  0
 27 22  1  0  0  0
 28 29  1  0  0  0
 38 40  1  0  0  0
M  END
> <minimizedAffinity>
-8.30580

> <CNNscore>
0.3344565034

> <CNNaffinity>
6.2395782471

> <CNN_VS>
2.0868675709

> <CNNaffinity_variance>
0.0973659679

$$$$



 40 44  0  0  0  0  0  0  0  0999 V2000
   -8.2350   -3.4994  -24.5254 C   0  0  0  0  0  0  0  0  0  0  0  0
   -8.7588   -2.3040  -25.2648 C   0  0  0  0  0  0  0  0  0  0  0  0
   -8.2614   -1.0729  -24.5670 N   0  0  0  0  0  0  0  0  0  0  0  0
   -7.4302   -1.5074  -23.3964 C   0  0  0  0  0  0  0  0  0  0  0  0
   -6.7370   -0.6013  -22.4225 O   0  0  0  0  0  0  0  0  0  0  0  0
   -7.4139   -3.0071  -23.3707 C   0  0  0  0  0  0  0  0  0  0  0  0
   -6.6270   -2.3694  -22.2644 C   0  0  0  0  0  0  0  0  0  0  0  0
   -5.9146   -3.2263  -21.2602 N   0  0  0  0  0  0  0  0  0  0  0  0
   -5.9892   -4.7209  -21.3624 C   0  0  0  0  0  0  0  0  0  0  0  0
   -5.2768   -5.5778  -20.3583 O   0  0  0  0  0  0  0  0  0  0  0  0
   -6.7762   -5.3587  -22.4688 C   0  0  0  0  0  0  0  0  0  0  0  0
   -6.8507   -6.8533  -22.5710 C   0  0  0  0  0  0  0  0  0  0  0  0
   -7.6377   -7.4911  -23.6773 C   0  0  0  0  0  0  0  0  0  0  0  0
   -8.3500   -6.6342  -24.6815 C   0  0  0  0  0  0  0  0  0  0  0  0
   -8.9464   -7.2810  -25.5195 Cl  0  0  0  0  0  0  0  0  0  0  0  0
   -8.2755   -5.1395  -24.5793 C   0  0  0  0  0  0  0  0  0  0  0  0
   -7.4885   -4.5018  -23.4729 C   0  0  0  0  0  0  0  0  0  0  0  0
   -8.5453    0.3440  -24.9692 C   0  0  0  0  0  0  0  0  0  0  0  0
   -9.6002    1.1309  -24.2496 C   0  0  0  0  0  0  0  0  0  0  0  0
   -9.8842    2.5478  -24.6518 N   0  0  0  0  0  0  0  0  0  0  0  0
   -9.1131    3.1778  -25.7736 C   0  0  0  0  0  0  0  0  0  0  0  0
   -8.0581    2.3909  -26.4933 C   0  0  0  0  0  0  0  0  0  0  0  0
   -7.2871    3.0210  -27.6152 C   0  0  0  0  0  0  0  0  0  0  0  0
   -6.2321    2.2340  -28.3347 C   0  0  0  0  0  0  0  0  0  0  0  0
   -5.9483    0.8171  -27.9325 C   0  0  0  0  0  0  0  0  0  0  0  0
   -6.7193    0.1871  -26.8107 C   0  0  0  0  0  0  0  0  0  0  0  0
   -7.7742    0.9740  -26.0911 C   0  0  0  0  0  0  0  0  0  0  0  0
   -8.4880   -4.9351  -24.8787 N   0  0  0  0  0  0  0  0  0  0  0  0
   -8.3234   -5.6670  -24.1876 H   0  0  0  0  0  0  0  0  0  0  0  0
   -8.9830   -5.2945  -26.2483 S   0  0  0  0  0  0  0  0  0  0  0  0
   -7.8947   -5.3812  -26.7812 O   0  0  0  0  0  0  0  0  0  0  0  0
  -10.3977   -5.2309  -25.7536 O   0  0  0  0  0  0  0  0  0  0  0  0
   -8.6195   -6.4738  -28.5346 C   0  0  0  0  0  0  0  0  0  0  0  0
   -9.4782   -5.6540  -27.6178 C   0  0  0  0  0  0  0  0  0  0  0  0
   -5.1276   -2.5885  -20.1539 C   0  0  0  0  0  0  0  0  0  0  0  0
   -5.7772   -1.5746  -19.2595 C   0  0  0  0  0  0  0  0  0  0  0  0
   -7.2283   -1.7084  -18.9039 O   0  0  0  0  0  0  0  0  0  0  0  0
   -4.9756   -0.4270  -18.7206 N   0  0  0  0  0  0  0  0  0  0  0  0
   -5.6252    0.5870  -17.8262 C   0  0  0  0  0  0  0  0  0  0  0  0
   -4.0232   -0.3392  -18.9540 H   0  0  0  0  0  0  0  0  0  0  0  0
 33 34  1  0  0  0
 34 30  1  0  0  0
 30 31  2  0  0  0
 30 32  2  0  0  0
 30 28  1  0  0  0
  1 28  1  0  0  0
  1  2  1  0  0  0
  2  3  1  0  0  0
  3 18  1  0  0  0
 18 19  2  0  0  0
 19 20  1  0  0  0
 20 21  2  0  0  0
 21 22  1  0  0  0
 22 23  2  0  0  0
 23 24  1  0  0  0
 24 25  2  0  0  0
 25 26  1  0  0  0
 26 27  2  0  0  0
  3  4  1  0  0  0
  4  5  2  0  0  0
  4  6  1  0  0  0
  6  7  1  0  0  0
  7  8  1  0  0  0
  8 35  1  0  0  0
 35 36  1  0  0  0
 36 37  2  0  0  0
 36 38  1  0  0  0
 38 39  1  0  0  0
  8  9  1  0  0  0
  9 10  2  0  0  0
  9 11  1  0  0  0
 11 12  2  0  0  0
 12 13  1  0  0  0
 13 14  2  0  0  0
 14 15  1  0  0  0
 14 16  1  0  0  0
 16 17  2  0  0  0
  6  1  1  0  0  0
 17 11  1  0  0  0
 27 18  1  0  0  0
 17  6  1  0  0  0
 27 22  1  0  0  0
 28 29  1  0  0  0
 38 40  1  0  0  0
M  END
> <minimizedAffinity>
-7.23125

> <CNNscore>
0.3036540747

> <CNNaffinity>
6.1512918472

> <CNN_VS>
1.8678648472

> <CNNaffinity_variance>
0.2812004983

$$$$



 40 44  0  0  0  0  0  0  0  0999 V2000
   -8.9991   -2.5919  -23.7270 C   0  0  0  0  0  0  0  0  0  0  0  0
  -10.0923   -1.7127  -24.2579 C   0  0  0  0  0  0  0  0  0  0  0  0
  -10.1307   -0.4663  -23.4242 N   0  0  0  0  0  0  0  0  0  0  0  0
   -9.0612   -0.5753  -22.3781 C   0  0  0  0  0  0  0  0  0  0  0  0
   -8.7463    0.4496  -21.3290 O   0  0  0  0  0  0  0  0  0  0  0  0
   -8.3618   -1.8890  -22.5653 C   0  0  0  0  0  0  0  0  0  0  0  0
   -7.8265   -1.0694  -21.4287 C   0  0  0  0  0  0  0  0  0  0  0  0
   -6.6896   -1.5890  -20.5997 N   0  0  0  0  0  0  0  0  0  0  0  0
   -6.0879   -2.9282  -20.9072 C   0  0  0  0  0  0  0  0  0  0  0  0
   -4.9509   -3.4478  -20.0781 O   0  0  0  0  0  0  0  0  0  0  0  0
   -6.6232   -3.7479  -22.0437 C   0  0  0  0  0  0  0  0  0  0  0  0
   -6.0215   -5.0870  -22.3512 C   0  0  0  0  0  0  0  0  0  0  0  0
   -6.5568   -5.9066  -23.4877 C   0  0  0  0  0  0  0  0  0  0  0  0
   -7.6938   -5.3870  -24.3167 C   0  0  0  0  0  0  0  0  0  0  0  0
   -8.0250   -6.1520  -25.2008 Cl  0  0  0  0  0  0  0  0  0  0  0  0
   -8.2954   -4.0478  -24.0093 C   0  0  0  0  0  0  0  0  0  0  0  0
   -7.7601   -3.2283  -22.8728 C   0  0  0  0  0  0  0  0  0  0  0  0
  -11.0730    0.6867  -23.6049 C   0  0  0  0  0  0  0  0  0  0  0  0
  -12.5238    0.5310  -23.2575 C   0  0  0  0  0  0  0  0  0  0  0  0
  -13.4662    1.6840  -23.4382 N   0  0  0  0  0  0  0  0  0  0  0  0
  -12.9576    2.9926  -23.9662 C   0  0  0  0  0  0  0  0  0  0  0  0
  -11.5067    3.1483  -24.3135 C   0  0  0  0  0  0  0  0  0  0  0  0
  -10.9981    4.4570  -24.8415 C   0  0  0  0  0  0  0  0  0  0  0  0
   -9.5472    4.6126  -25.1888 C   0  0  0  0  0  0  0  0  0  0  0  0
   -8.6049    3.4596  -25.0081 C   0  0  0  0  0  0  0  0  0  0  0  0
   -9.1135    2.1510  -24.4802 C   0  0  0  0  0  0  0  0  0  0  0  0
  -10.5643    1.9953  -24.1329 C   0  0  0  0  0  0  0  0  0  0  0  0
   -8.6114   -3.9379  -24.2638 N   0  0  0  0  0  0  0  0  0  0  0  0
   -8.0002   -4.5471  -23.7198 H   0  0  0  0  0  0  0  0  0  0  0  0
   -9.1222   -4.3881  -25.6003 S   0  0  0  0  0  0  0  0  0  0  0  0
  -10.0991   -4.9841  -25.1925 O   0  0  0  0  0  0  0  0  0  0  0  0
   -7.9696   -3.7020  -26.2719 O   0  0  0  0  0  0  0  0  0  0  0  0
  -10.4498   -6.0916  -27.0444 C   0  0  0  0  0  0  0  0  0  0  0  0
   -9.6329   -4.8382  -26.9369 C   0  0  0  0  0  0  0  0  0  0  0  0
   -6.1543   -0.7694  -19.4631 C   0  0  0  0  0  0  0  0  0  0  0  0
   -4.9841    0.1431  -19.6824 C   0  0  0  0  0  0  0  0  0  0  0  0
   -4.5148    1.0402  -18.5756 O   0  0  0  0  0  0  0  0  0  0  0  0
   -4.2833    0.1585  -21.0085 N   0  0  0  0  0  0  0  0  0  0  0  0
   -3.1131    1.0710  -21.2279 C   0  0  0  0  0  0  0  0  0  0  0  0
   -4.5914   -0.4303  -21.7349 H   0  0  0  0  0  0  0  0  0  0  0  0
 33 34  1  0  0  0
 34 30  1  0  0  0
 30 31  2  0  0  0
 30 32  2  0  0  0
 30 28  1  0  0  0
  1 28  1  0  0  0
  1  2  1  0  0  0
  2  3  1  0  0  0
  3 18  1  0  0  0
 18 19  2  0  0  0
 19 20  1  0  0  0
 20 21  2  0  0  0
 21 22  1  0  0  0
 22 23  2  0  0  0
 23 24  1  0  0  0
 24 25  2  0  0  0
 25 26  1  0  0  0
 26 27  2  0  0  0
  3  4  1  0  0  0
  4  5  2  0  0  0
  4  6  1  0  0  0
  6  7  1  0  0  0
  7  8  1  0  0  0
  8 35  1  0  0  0
 35 36  1  0  0  0
 36 37  2  0  0  0
 36 38  1  0  0  0
 38 39  1  0  0  0
  8  9  1  0  0  0
  9 10  2  0  0  0
  9 11  1  0  0  0
 11 12  2  0  0  0
 12 13  1  0  0  0
 13 14  2  0  0  0
 14 15  1  0  0  0
 14 16  1  0  0  0
 16 17  2  0  0  0
  6  1  1  0  0  0
 17 11  1  0  0  0
 27 18  1  0  0  0
 17  6  1  0  0  0
 27 22  1  0  0  0
 28 29  1  0  0  0
 38 40  1  0  0  0
M  END
> <minimizedAffinity>
-8.63786

> <CNNscore>
0.2565383315

> <CNNaffinity>
6.1840009689

> <CNN_VS>
1.5864332914

> <CNNaffinity_variance>
0.0910860449

$$$$



 40 44  0  0  0  0  0  0  0  0999 V2000
   -8.4845   -0.2994  -22.6545 C   0  0  0  0  0  0  0  0  0  0  0  0
   -7.6542    0.8078  -22.0758 C   0  0  0  0  0  0  0  0  0  0  0  0
   -6.2734    0.2740  -21.8341 N   0  0  0  0  0  0  0  0  0  0  0  0
   -6.2504   -1.1631  -22.2634 C   0  0  0  0  0  0  0  0  0  0  0  0
   -5.0683   -2.0841  -22.1973 O   0  0  0  0  0  0  0  0  0  0  0  0
   -7.6169   -1.5175  -22.7704 C   0  0  0  0  0  0  0  0  0  0  0  0
   -6.6333   -2.6485  -22.8261 C   0  0  0  0  0  0  0  0  0  0  0  0
   -7.0577   -3.9861  -23.3561 N   0  0  0  0  0  0  0  0  0  0  0  0
   -8.4656   -4.1926  -23.8303 C   0  0  0  0  0  0  0  0  0  0  0  0
   -8.8900   -5.5301  -24.3603 O   0  0  0  0  0  0  0  0  0  0  0  0
   -9.4493   -3.0615  -23.7747 C   0  0  0  0  0  0  0  0  0  0  0  0
  -10.8573   -3.2680  -24.2489 C   0  0  0  0  0  0  0  0  0  0  0  0
  -11.8408   -2.1369  -24.1932 C   0  0  0  0  0  0  0  0  0  0  0  0
  -11.4165   -0.7993  -23.6633 C   0  0  0  0  0  0  0  0  0  0  0  0
  -12.3118    0.0220  -23.6758 Cl  0  0  0  0  0  0  0  0  0  0  0  0
  -10.0085   -0.5928  -23.1890 C   0  0  0  0  0  0  0  0  0  0  0  0
   -9.0249   -1.7239  -23.2447 C   0  0  0  0  0  0  0  0  0  0  0  0
   -5.1185    1.0423  -21.2633 C   0  0  0  0  0  0  0  0  0  0  0  0
   -4.6640    0.7795  -19.8583 C   0  0  0  0  0  0  0  0  0  0  0  0
   -3.5091    1.5478  -19.2875 N   0  0  0  0  0  0  0  0  0  0  0  0
   -2.8086    2.5789  -20.1219 C   0  0  0  0  0  0  0  0  0  0  0  0
   -3.2631    2.8417  -21.5270 C   0  0  0  0  0  0  0  0  0  0  0  0
   -2.5626    3.8728  -22.3614 C   0  0  0  0  0  0  0  0  0  0  0  0
   -3.0172    4.1355  -23.7665 C   0  0  0  0  0  0  0  0  0  0  0  0
   -4.1721    3.3672  -24.3372 C   0  0  0  0  0  0  0  0  0  0  0  0
   -4.8726    2.3361  -23.5028 C   0  0  0  0  0  0  0  0  0  0  0  0
   -4.4181    2.0734  -22.0978 C   0  0  0  0  0  0  0  0  0  0  0  0
   -9.9289   -0.2050  -23.0480 N   0  0  0  0  0  0  0  0  0  0  0  0
  -10.4984   -1.0493  -23.1042 H   0  0  0  0  0  0  0  0  0  0  0  0
  -10.5358    1.1310  -23.3591 S   0  0  0  0  0  0  0  0  0  0  0  0
  -11.0290    1.3277  -22.2664 O   0  0  0  0  0  0  0  0  0  0  0  0
   -9.9968    1.0505  -24.7566 O   0  0  0  0  0  0  0  0  0  0  0  0
  -10.3919    3.4535  -24.5147 C   0  0  0  0  0  0  0  0  0  0  0  0
  -11.1427    2.4670  -23.6702 C   0  0  0  0  0  0  0  0  0  0  0  0
   -6.0740   -5.1172  -23.4117 C   0  0  0  0  0  0  0  0  0  0  0  0
   -5.4404   -5.4966  -24.7173 C   0  0  0  0  0  0  0  0  0  0  0  0
   -5.7396   -6.8294  -25.3370 O   0  0  0  0  0  0  0  0  0  0  0  0
   -4.5075   -4.5430  -25.4033 N   0  0  0  0  0  0  0  0  0  0  0  0
   -3.8739   -4.9224  -26.7089 C   0  0  0  0  0  0  0  0  0  0  0  0
   -4.3111   -3.6682  -24.9966 H   0  0  0  0  0  0  0  0  0  0  0  0
 33 34  1  0  0  0
 34 30  1  0  0  0
 30 31  2  0  0  0
 30 32  2  0  0  0
 30 28  1  0  0  0
  1 28  1  0  0  0
  1  2  1  0  0  0
  2  3  1  0  0  0
  3 18  1  0  0  0
 18 19  2  0  0  0
 19 20  1  0  0  0
 20 21  2  0  0  0
 21 22  1  0  0  0
 22 23  2  0  0  0
 23 24  1  0  0  0
 24 25  2  0  0  0
 25 26  1  0  0  0
 26 27  2  0  0  0
  3  4  1  0  0  0
  4  5  2  0  0  0
  4  6  1  0  0  0
  6  7  1  0  0  0
  7  8  1  0  0  0
  8 35  1  0  0  0
 35 36  1  0  0  0
 36 37  2  0  0  0
 36 38  1  0  0  0
 38 39  1  0  0  0
  8  9  1  0  0  0
  9 10  2  0  0  0
  9 11  1  0  0  0
 11 12  2  0  0  0
 12 13  1  0  0  0
 13 14  2  0  0  0
 14 15  1  0  0  0
 14 16  1  0  0  0
 16 17  2  0  0  0
  6  1  1  0  0  0
 17 11  1  0  0  0
 27 18  1  0  0  0
 17  6  1  0  0  0
 27 22  1  0  0  0
 28 29  1  0  0  0
 38 40  1  0  0  0
M  END
> <minimizedAffinity>
-6.76839

> <CNNscore>
0.2476377487

> <CNNaffinity>
6.0687689781

> <CNN_VS>
1.5028562546

> <CNNaffinity_variance>
0.0797094256

$$$$
