


 40 44  0  0  0  0  0  0  0  0999 V2000
    8.0246   -1.4101   22.7936 C   0  0  0  0  0  0  0  0  0  0  0  0
    7.6275   -0.3110   21.8532 C   0  0  0  0  0  0  0  0  0  0  0  0
    6.4594   -0.7922   21.0446 N   0  0  0  0  0  0  0  0  0  0  0  0
    6.1345   -2.1887   21.4852 C   0  0  0  0  0  0  0  0  0  0  0  0
    5.0352   -3.0518   20.9405 O   0  0  0  0  0  0  0  0  0  0  0  0
    7.1018   -2.5707   22.5661 C   0  0  0  0  0  0  0  0  0  0  0  0
    6.1092   -3.6434   22.2289 C   0  0  0  0  0  0  0  0  0  0  0  0
    6.1471   -4.9555   22.9549 N   0  0  0  0  0  0  0  0  0  0  0  0
    7.1777   -5.1948   24.0182 C   0  0  0  0  0  0  0  0  0  0  0  0
    7.2156   -6.5068   24.7442 O   0  0  0  0  0  0  0  0  0  0  0  0
    8.1704   -4.1220   24.3555 C   0  0  0  0  0  0  0  0  0  0  0  0
    9.2010   -4.3613   25.4187 C   0  0  0  0  0  0  0  0  0  0  0  0
   10.1936   -3.2885   25.7560 C   0  0  0  0  0  0  0  0  0  0  0  0
   10.1557   -1.9765   25.0300 C   0  0  0  0  0  0  0  0  0  0  0  0
   11.0147   -1.2024   25.4032 Cl  0  0  0  0  0  0  0  0  0  0  0  0
    9.1251   -1.7372   23.9667 C   0  0  0  0  0  0  0  0  0  0  0  0
    8.1325   -2.8099   23.6295 C   0  0  0  0  0  0  0  0  0  0  0  0
    5.7421   -0.0136   19.9820 C   0  0  0  0  0  0  0  0  0  0  0  0
    6.2131   -0.0765   18.5593 C   0  0  0  0  0  0  0  0  0  0  0  0
    5.4958    0.7021   17.4967 N   0  0  0  0  0  0  0  0  0  0  0  0
    4.3074    1.5436   17.8568 C   0  0  0  0  0  0  0  0  0  0  0  0
    3.8364    1.6065   19.2795 C   0  0  0  0  0  0  0  0  0  0  0  0
    2.6480    2.4480   19.6396 C   0  0  0  0  0  0  0  0  0  0  0  0
    2.1770    2.5109   21.0624 C   0  0  0  0  0  0  0  0  0  0  0  0
    2.8944    1.7323   22.1249 C   0  0  0  0  0  0  0  0  0  0  0  0
    4.0827    0.8908   21.7648 C   0  0  0  0  0  0  0  0  0  0  0  0
    4.5537    0.8279   20.3422 C   0  0  0  0  0  0  0  0  0  0  0  0
    9.1473   -1.3579   23.7870 N   0  0  0  0  0  0  0  0  0  0  0  0
    9.2017   -2.0524   24.5320 H   0  0  0  0  0  0  0  0  0  0  0  0
   10.1899   -0.2844   23.6848 S   0  0  0  0  0  0  0  0  0  0  0  0
    9.6612    0.5079   24.4389 O   0  0  0  0  0  0  0  0  0  0  0  0
   10.9758   -1.1382   22.7342 O   0  0  0  0  0  0  0  0  0  0  0  0
   12.5104    0.5254   22.8424 C   0  0  0  0  0  0  0  0  0  0  0  0
   11.2326    0.7890   23.5826 C   0  0  0  0  0  0  0  0  0  0  0  0
    5.1544   -6.0282   22.6176 C   0  0  0  0  0  0  0  0  0  0  0  0
    3.9018   -6.1733   23.4299 C   0  0  0  0  0  0  0  0  0  0  0  0
    3.7739   -5.4623   24.7445 O   0  0  0  0  0  0  0  0  0  0  0  0
    2.7771   -7.0292   22.9276 N   0  0  0  0  0  0  0  0  0  0  0  0
    1.5244   -7.1743   23.7400 C   0  0  0  0  0  0  0  0  0  0  0  0
    2.8610   -7.4959   22.0648 H   0  0  0  0  0  0  0  0  0  0  0  0
 33 34  1  0  0  0
 34 30  1  0  0  0
 30 31  2  0  0  0
 30 32  2  0  0  0
 30 28  1  0  0  0
  1 28  1  0  0  0
  1  2  1  0  0  0
  2  3  1  0  0  0
  3 18  1  0  0  0
 18 19  2  0  0  0
 19 20  1  0  0  0
 20 21  2  0  0  0
 21 22  1  0  0  0
 22 23  2  0  0  0
 23 24  1  0  0  0
 24 25  2  0  0  0
 25 26  1  0  0  0
 26 27  2  0  0  0
  3  4  1  0  0  0
  4  5  2  0  0  0
  4  6  1  0  0  0
  6  7  1  0  0  0
  7  8  1  0  0  0
  8 35  1  0  0  0
 35 36  1  0  0  0
 36 37  2  0  0  0
 36 38  1  0  0  0
 38 39  1  0  0  0
  8  9  1  0  0  0
  9 10  2  0  0  0
  9 11  1  0  0  0
 11 12  2  0  0  0
 12 13  1  0  0  0
 13 14  2  0  0  0
 14 15  1  0  0  0
 14 16  1  0  0  0
 16 17  2  0  0  0
  6  1  1  0  0  0
 17 11  1  0  0  0
 27 18  1  0  0  0
 17  6  1  0  0  0
 27 22  1  0  0  0
 28 29  1  0  0  0
 38 40  1  0  0  0
M  END
> <minimizedAffinity>
-8.25797

> <CNNscore>
0.5779417753

> <CNNaffinity>
6.7467322350

> <CNN_VS>
3.8992183208

> <CNNaffinity_variance>
0.0491636693

$$$$



 40 44  0  0  0  0  0  0  0  0999 V2000
   10.1796   -0.0252   23.7111 C   0  0  0  0  0  0  0  0  0  0  0  0
   10.9847    1.2403   23.7295 C   0  0  0  0  0  0  0  0  0  0  0  0
   10.2751    2.2535   22.8811 N   0  0  0  0  0  0  0  0  0  0  0  0
    9.0314    1.6142   22.3384 C   0  0  0  0  0  0  0  0  0  0  0  0
    8.0236    2.2684   21.4404 O   0  0  0  0  0  0  0  0  0  0  0  0
    8.9724    0.2059   22.8514 C   0  0  0  0  0  0  0  0  0  0  0  0
    7.8192    0.5827   21.9692 C   0  0  0  0  0  0  0  0  0  0  0  0
    6.7421   -0.4188   21.6742 N   0  0  0  0  0  0  0  0  0  0  0  0
    6.8181   -1.7969   22.2614 C   0  0  0  0  0  0  0  0  0  0  0  0
    5.7410   -2.7983   21.9665 O   0  0  0  0  0  0  0  0  0  0  0  0
    7.9713   -2.1737   23.1437 C   0  0  0  0  0  0  0  0  0  0  0  0
    8.0473   -3.5519   23.7309 C   0  0  0  0  0  0  0  0  0  0  0  0
    9.2004   -3.9286   24.6131 C   0  0  0  0  0  0  0  0  0  0  0  0
   10.2776   -2.9272   24.9081 C   0  0  0  0  0  0  0  0  0  0  0  0
   11.1476   -3.3658   25.6340 Cl  0  0  0  0  0  0  0  0  0  0  0  0
   10.2016   -1.5490   24.3208 C   0  0  0  0  0  0  0  0  0  0  0  0
    9.0484   -1.1723   23.4386 C   0  0  0  0  0  0  0  0  0  0  0  0
   10.7293    3.6593   22.6210 C   0  0  0  0  0  0  0  0  0  0  0  0
   12.0695    3.9109   21.9962 C   0  0  0  0  0  0  0  0  0  0  0  0
   12.5237    5.3166   21.7361 N   0  0  0  0  0  0  0  0  0  0  0  0
   11.6377    6.4706   22.1009 C   0  0  0  0  0  0  0  0  0  0  0  0
   10.2975    6.2190   22.7258 C   0  0  0  0  0  0  0  0  0  0  0  0
    9.4115    7.3731   23.0907 C   0  0  0  0  0  0  0  0  0  0  0  0
    8.0713    7.1214   23.7156 C   0  0  0  0  0  0  0  0  0  0  0  0
    7.6171    5.7157   23.9756 C   0  0  0  0  0  0  0  0  0  0  0  0
    8.5031    4.5617   23.6107 C   0  0  0  0  0  0  0  0  0  0  0  0
    9.8433    4.8133   22.9859 C   0  0  0  0  0  0  0  0  0  0  0  0
   10.5217   -1.2982   24.4268 N   0  0  0  0  0  0  0  0  0  0  0  0
    9.8144   -2.0239   24.5429 H   0  0  0  0  0  0  0  0  0  0  0  0
   11.9039   -1.5042   24.9718 S   0  0  0  0  0  0  0  0  0  0  0  0
   11.6831   -1.0954   26.0943 O   0  0  0  0  0  0  0  0  0  0  0  0
   12.3485   -2.0382   23.6424 O   0  0  0  0  0  0  0  0  0  0  0  0
   13.5476   -2.8105   26.5022 C   0  0  0  0  0  0  0  0  0  0  0  0
   13.2862   -1.7103   25.5167 C   0  0  0  0  0  0  0  0  0  0  0  0
    5.5890   -0.0419   20.7919 C   0  0  0  0  0  0  0  0  0  0  0  0
    5.8088    0.1822   19.3252 C   0  0  0  0  0  0  0  0  0  0  0  0
    7.0053   -0.4154   18.6462 O   0  0  0  0  0  0  0  0  0  0  0  0
    4.8320    1.0039   18.5375 N   0  0  0  0  0  0  0  0  0  0  0  0
    5.0518    1.2281   17.0706 C   0  0  0  0  0  0  0  0  0  0  0  0
    4.0466    1.3962   18.9831 H   0  0  0  0  0  0  0  0  0  0  0  0
 33 34  1  0  0  0
 34 30  1  0  0  0
 30 31  2  0  0  0
 30 32  2  0  0  0
 30 28  1  0  0  0
  1 28  1  0  0  0
  1  2  1  0  0  0
  2  3  1  0  0  0
  3 18  1  0  0  0
 18 19  2  0  0  0
 19 20  1  0  0  0
 20 21  2  0  0  0
 21 22  1  0  0  0
 22 23  2  0  0  0
 23 24  1  0  0  0
 24 25  2  0  0  0
 25 26  1  0  0  0
 26 27  2  0  0  0
  3  4  1  0  0  0
  4  5  2  0  0  0
  4  6  1  0  0  0
  6  7  1  0  0  0
  7  8  1  0  0  0
  8 35  1  0  0  0
 35 36  1  0  0  0
 36 37  2  0  0  0
 36 38  1  0  0  0
 38 39  1  0  0  0
  8  9  1  0  0  0
  9 10  2  0  0  0
  9 11  1  0  0  0
 11 12  2  0  0  0
 12 13  1  0  0  0
 13 14  2  0  0  0
 14 15  1  0  0  0
 14 16  1  0  0  0
 16 17  2  0  0  0
  6  1  1  0  0  0
 17 11  1  0  0  0
 27 18  1  0  0  0
 17  6  1  0  0  0
 27 22  1  0  0  0
 28 29  1  0  0  0
 38 40  1  0  0  0
M  END
> <minimizedAffinity>
-8.99423

> <CNNscore>
0.4823698997

> <CNNaffinity>
6.8288254738

> <CNN_VS>
3.2940199375

> <CNNaffinity_variance>
0.0670872480

$$$$



 40 44  0  0  0  0  0  0  0  0999 V2000
    7.7148   -2.0751   22.5950 C   0  0  0  0  0  0  0  0  0  0  0  0
    6.6262   -1.8191   21.5952 C   0  0  0  0  0  0  0  0  0  0  0  0
    6.8954   -0.4939   20.9460 N   0  0  0  0  0  0  0  0  0  0  0  0
    8.1503    0.0690   21.5446 C   0  0  0  0  0  0  0  0  0  0  0  0
    8.7870    1.3792   21.1868 O   0  0  0  0  0  0  0  0  0  0  0  0
    8.6567   -0.9082   22.5637 C   0  0  0  0  0  0  0  0  0  0  0  0
    9.5059    0.3201   22.4216 C   0  0  0  0  0  0  0  0  0  0  0  0
   10.7379    0.4815   23.2619 N   0  0  0  0  0  0  0  0  0  0  0  0
   11.1208   -0.5854   24.2442 C   0  0  0  0  0  0  0  0  0  0  0  0
   12.3528   -0.4240   25.0845 O   0  0  0  0  0  0  0  0  0  0  0  0
   10.2717   -1.8138   24.3863 C   0  0  0  0  0  0  0  0  0  0  0  0
   10.6546   -2.8807   25.3687 C   0  0  0  0  0  0  0  0  0  0  0  0
    9.8054   -4.1090   25.5107 C   0  0  0  0  0  0  0  0  0  0  0  0
    8.5734   -4.2704   24.6704 C   0  0  0  0  0  0  0  0  0  0  0  0
    7.9828   -5.3096   24.8886 Cl  0  0  0  0  0  0  0  0  0  0  0  0
    8.1905   -3.2035   23.6881 C   0  0  0  0  0  0  0  0  0  0  0  0
    9.0396   -1.9752   23.5461 C   0  0  0  0  0  0  0  0  0  0  0  0
    6.0569    0.1545   19.8846 C   0  0  0  0  0  0  0  0  0  0  0  0
    6.4106   -0.0218   18.4377 C   0  0  0  0  0  0  0  0  0  0  0  0
    5.5721    0.6266   17.3763 N   0  0  0  0  0  0  0  0  0  0  0  0
    4.3799    1.4512   17.7620 C   0  0  0  0  0  0  0  0  0  0  0  0
    4.0263    1.6275   19.2090 C   0  0  0  0  0  0  0  0  0  0  0  0
    2.8341    2.4522   19.5947 C   0  0  0  0  0  0  0  0  0  0  0  0
    2.4805    2.6284   21.0417 C   0  0  0  0  0  0  0  0  0  0  0  0
    3.3190    1.9800   22.1030 C   0  0  0  0  0  0  0  0  0  0  0  0
    4.5111    1.1554   21.7173 C   0  0  0  0  0  0  0  0  0  0  0  0
    4.8648    0.9791   20.2704 C   0  0  0  0  0  0  0  0  0  0  0  0
    7.8395   -3.2856   23.4720 N   0  0  0  0  0  0  0  0  0  0  0  0
    8.6961   -3.4451   24.0023 H   0  0  0  0  0  0  0  0  0  0  0  0
    6.7045   -4.2615   23.5694 S   0  0  0  0  0  0  0  0  0  0  0  0
    7.2156   -5.0021   24.3856 O   0  0  0  0  0  0  0  0  0  0  0  0
    5.9293   -3.4599   22.5660 O   0  0  0  0  0  0  0  0  0  0  0  0
    5.7223   -6.4865   24.4829 C   0  0  0  0  0  0  0  0  0  0  0  0
    5.5695   -5.2373   23.6667 C   0  0  0  0  0  0  0  0  0  0  0  0
   11.5870    1.7099   23.1198 C   0  0  0  0  0  0  0  0  0  0  0  0
   10.9497    3.0292   22.7986 C   0  0  0  0  0  0  0  0  0  0  0  0
   11.6468    3.9973   21.8893 O   0  0  0  0  0  0  0  0  0  0  0  0
    9.6153    3.3804   23.3867 N   0  0  0  0  0  0  0  0  0  0  0  0
    8.9778    4.6997   23.0655 C   0  0  0  0  0  0  0  0  0  0  0  0
    9.1578    2.7449   23.9835 H   0  0  0  0  0  0  0  0  0  0  0  0
 33 34  1  0  0  0
 34 30  1  0  0  0
 30 31  2  0  0  0
 30 32  2  0  0  0
 30 28  1  0  0  0
  1 28  1  0  0  0
  1  2  1  0  0  0
  2  3  1  0  0  0
  3 18  1  0  0  0
 18 19  2  0  0  0
 19 20  1  0  0  0
 20 21  2  0  0  0
 21 22  1  0  0  0
 22 23  2  0  0  0
 23 24  1  0  0  0
 24 25  2  0  0  0
 25 26  1  0  0  0
 26 27  2  0  0  0
  3  4  1  0  0  0
  4  5  2  0  0  0
  4  6  1  0  0  0
  6  7  1  0  0  0
  7  8  1  0  0  0
  8 35  1  0  0  0
 35 36  1  0  0  0
 36 37  2  0  0  0
 36 38  1  0  0  0
 38 39  1  0  0  0
  8  9  1  0  0  0
  9 10  2  0  0  0
  9 11  1  0  0  0
 11 12  2  0  0  0
 12 13  1  0  0  0
 13 14  2  0  0  0
 14 15  1  0  0  0
 14 16  1  0  0  0
 16 17  2  0  0  0
  6  1  1  0  0  0
 17 11  1  0  0  0
 27 18  1  0  0  0
 17  6  1  0  0  0
 27 22  1  0  0  0
 28 29  1  0  0  0
 38 40  1  0  0  0
M  END
> <minimizedAffinity>
-9.07121

> <CNNscore>
0.3999872208

> <CNNaffinity>
6.5800604820

> <CNN_VS>
2.6319401264

> <CNNaffinity_variance>
0.2674319148

$$$$



 40 44  0  0  0  0  0  0  0  0999 V2000
    6.6289   -3.4395   24.8570 C   0  0  0  0  0  0  0  0  0  0  0  0
    7.9827   -3.2047   24.2554 C   0  0  0  0  0  0  0  0  0  0  0  0
    8.4837   -1.8783   24.7449 N   0  0  0  0  0  0  0  0  0  0  0  0
    7.4395   -1.2934   25.6491 C   0  0  0  0  0  0  0  0  0  0  0  0
    7.5265    0.0250   26.3592 O   0  0  0  0  0  0  0  0  0  0  0  0
    6.2931   -2.2583   25.7184 C   0  0  0  0  0  0  0  0  0  0  0  0
    6.0967   -1.0176   26.5381 C   0  0  0  0  0  0  0  0  0  0  0  0
    4.8360   -0.8335   27.3298 N   0  0  0  0  0  0  0  0  0  0  0  0
    3.7717   -1.8901   27.3017 C   0  0  0  0  0  0  0  0  0  0  0  0
    2.5110   -1.7061   28.0934 O   0  0  0  0  0  0  0  0  0  0  0  0
    3.9681   -3.1309   26.4819 C   0  0  0  0  0  0  0  0  0  0  0  0
    2.9039   -4.1876   26.4538 C   0  0  0  0  0  0  0  0  0  0  0  0
    3.1004   -5.4283   25.6341 C   0  0  0  0  0  0  0  0  0  0  0  0
    4.3611   -5.6123   24.8424 C   0  0  0  0  0  0  0  0  0  0  0  0
    4.3864   -6.6596   24.2269 Cl  0  0  0  0  0  0  0  0  0  0  0  0
    5.4253   -4.5557   24.8705 C   0  0  0  0  0  0  0  0  0  0  0  0
    5.2289   -3.3150   25.6903 C   0  0  0  0  0  0  0  0  0  0  0  0
    9.7982   -1.2475   24.3922 C   0  0  0  0  0  0  0  0  0  0  0  0
    9.8461   -0.1100   23.4157 C   0  0  0  0  0  0  0  0  0  0  0  0
   11.1605    0.5208   23.0630 N   0  0  0  0  0  0  0  0  0  0  0  0
   12.4270    0.0139   23.6868 C   0  0  0  0  0  0  0  0  0  0  0  0
   12.3790   -1.1237   24.6633 C   0  0  0  0  0  0  0  0  0  0  0  0
   13.6456   -1.6306   25.2871 C   0  0  0  0  0  0  0  0  0  0  0  0
   13.5975   -2.7682   26.2636 C   0  0  0  0  0  0  0  0  0  0  0  0
   12.2831   -3.3989   26.6163 C   0  0  0  0  0  0  0  0  0  0  0  0
   11.0167   -2.8920   25.9925 C   0  0  0  0  0  0  0  0  0  0  0  0
   11.0646   -1.7545   25.0160 C   0  0  0  0  0  0  0  0  0  0  0  0
    5.7628   -4.6441   24.6361 N   0  0  0  0  0  0  0  0  0  0  0  0
    4.9671   -4.8196   25.2497 H   0  0  0  0  0  0  0  0  0  0  0  0
    6.0667   -5.5907   23.5129 S   0  0  0  0  0  0  0  0  0  0  0  0
    5.4747   -4.9834   22.6430 O   0  0  0  0  0  0  0  0  0  0  0  0
    6.8405   -6.4625   24.4570 O   0  0  0  0  0  0  0  0  0  0  0  0
    5.7044   -6.3593   21.0577 C   0  0  0  0  0  0  0  0  0  0  0  0
    6.3707   -6.5373   22.3898 C   0  0  0  0  0  0  0  0  0  0  0  0
    4.6395    0.4073   28.1496 C   0  0  0  0  0  0  0  0  0  0  0  0
    5.5991    0.7358   29.2547 C   0  0  0  0  0  0  0  0  0  0  0  0
    6.5846    1.8538   29.0847 O   0  0  0  0  0  0  0  0  0  0  0  0
    5.5731   -0.0538   30.5298 N   0  0  0  0  0  0  0  0  0  0  0  0
    6.5327    0.2747   31.6350 C   0  0  0  0  0  0  0  0  0  0  0  0
    4.9263   -0.7875   30.6413 H   0  0  0  0  0  0  0  0  0  0  0  0
 33 34  1  0  0  0
 34 30  1  0  0  0
 30 31  2  0  0  0
 30 32  2  0  0  0
 30 28  1  0  0  0
  1 28  1  0  0  0
  1  2  1  0  0  0
  2  3  1  0  0  0
  3 18  1  0  0  0
 18 19  2  0  0  0
 19 20  1  0  0  0
 20 21  2  0  0  0
 21 22  1  0  0  0
 22 23  2  0  0  0
 23 24  1  0  0  0
 24 25  2  0  0  0
 25 26  1  0  0  0
 26 27  2  0  0  0
  3  4  1  0  0  0
  4  5  2  0  0  0
  4  6  1  0  0  0
  6  7  1  0  0  0
  7  8  1  0  0  0
  8 35  1  0  0  0
 35 36  1  0  0  0
 36 37  2  0  0  0
 36 38  1  0  0  0
 38 39  1  0  0  0
  8  9  1  0  0  0
  9 10  2  0  0  0
  9 11  1  0  0  0
 11 12  2  0  0  0
 12 13  1  0  0  0
 13 14  2  0  0  0
 14 15  1  0  0  0
 14 16  1  0  0  0
 16 17  2  0  0  0
  6  1  1  0  0  0
 17 11  1  0  0  0
 27 18  1  0  0  0
 17  6  1  0  0  0
 27 22  1  0  0  0
 28 29  1  0  0  0
 38 40  1  0  0  0
M  END
> <minimizedAffinity>
-7.18977

> <CNNscore>
0.3475033641

> <CNNaffinity>
6.3940377235

> <CNN_VS>
2.2219495773

> <CNNaffinity_variance>
0.0789051354

$$$$



 40 44  0  0  0  0  0  0  0  0999 V2000
    9.3146   -1.2602   22.8462 C   0  0  0  0  0  0  0  0  0  0  0  0
    8.8772   -0.6497   21.5478 C   0  0  0  0  0  0  0  0  0  0  0  0
    7.3785   -0.6870   21.4996 N   0  0  0  0  0  0  0  0  0  0  0  0
    6.8896   -1.3205   22.7684 C   0  0  0  0  0  0  0  0  0  0  0  0
    5.4558   -1.5580   23.1397 O   0  0  0  0  0  0  0  0  0  0  0  0
    8.0862   -1.6748   23.6006 C   0  0  0  0  0  0  0  0  0  0  0  0
    6.7747   -2.0340   24.2338 C   0  0  0  0  0  0  0  0  0  0  0  0
    6.7477   -2.6880   25.5835 N   0  0  0  0  0  0  0  0  0  0  0  0
    8.0320   -2.9827   26.3000 C   0  0  0  0  0  0  0  0  0  0  0  0
    8.0050   -3.6367   27.6496 O   0  0  0  0  0  0  0  0  0  0  0  0
    9.3436   -2.6235   25.6668 C   0  0  0  0  0  0  0  0  0  0  0  0
   10.6280   -2.9182   26.3833 C   0  0  0  0  0  0  0  0  0  0  0  0
   11.9395   -2.5590   25.7501 C   0  0  0  0  0  0  0  0  0  0  0  0
   11.9666   -1.9050   24.4005 C   0  0  0  0  0  0  0  0  0  0  0  0
   13.0927   -1.6702   24.0092 Cl  0  0  0  0  0  0  0  0  0  0  0  0
   10.6822   -1.6102   23.6840 C   0  0  0  0  0  0  0  0  0  0  0  0
    9.3707   -1.9695   24.3171 C   0  0  0  0  0  0  0  0  0  0  0  0
    6.5194   -0.1798   20.3795 C   0  0  0  0  0  0  0  0  0  0  0  0
    6.5717   -0.8426   19.0350 C   0  0  0  0  0  0  0  0  0  0  0  0
    5.7126   -0.3354   17.9148 N   0  0  0  0  0  0  0  0  0  0  0  0
    4.8013    0.8346   18.1393 C   0  0  0  0  0  0  0  0  0  0  0  0
    4.7490    1.4975   19.4839 C   0  0  0  0  0  0  0  0  0  0  0  0
    3.8375    2.6676   19.7083 C   0  0  0  0  0  0  0  0  0  0  0  0
    3.7853    3.3304   21.0529 C   0  0  0  0  0  0  0  0  0  0  0  0
    4.6444    2.8231   22.1730 C   0  0  0  0  0  0  0  0  0  0  0  0
    5.5558    1.6531   21.9485 C   0  0  0  0  0  0  0  0  0  0  0  0
    5.6080    0.9903   20.6040 C   0  0  0  0  0  0  0  0  0  0  0  0
   10.7317   -1.4269   23.3090 N   0  0  0  0  0  0  0  0  0  0  0  0
   10.9943   -2.2410   23.8645 H   0  0  0  0  0  0  0  0  0  0  0  0
   11.7625   -0.3963   22.9550 S   0  0  0  0  0  0  0  0  0  0  0  0
   12.2346   -0.9808   22.0004 O   0  0  0  0  0  0  0  0  0  0  0  0
   11.3019    0.4574   24.0992 O   0  0  0  0  0  0  0  0  0  0  0  0
   12.4415    2.0919   22.6420 C   0  0  0  0  0  0  0  0  0  0  0  0
   12.7933    0.6343   22.6012 C   0  0  0  0  0  0  0  0  0  0  0  0
    5.4361   -3.0472   26.2166 C   0  0  0  0  0  0  0  0  0  0  0  0
    5.2509   -2.8934   27.6971 C   0  0  0  0  0  0  0  0  0  0  0  0
    4.7398   -4.0439   28.5126 O   0  0  0  0  0  0  0  0  0  0  0  0
    5.5768   -1.5890   28.3621 N   0  0  0  0  0  0  0  0  0  0  0  0
    5.3916   -1.4351   29.8427 C   0  0  0  0  0  0  0  0  0  0  0  0
    5.9122   -0.8339   27.8269 H   0  0  0  0  0  0  0  0  0  0  0  0
 33 34  1  0  0  0
 34 30  1  0  0  0
 30 31  2  0  0  0
 30 32  2  0  0  0
 30 28  1  0  0  0
  1 28  1  0  0  0
  1  2  1  0  0  0
  2  3  1  0  0  0
  3 18  1  0  0  0
 18 19  2  0  0  0
 19 20  1  0  0  0
 20 21  2  0  0  0
 21 22  1  0  0  0
 22 23  2  0  0  0
 23 24  1  0  0  0
 24 25  2  0  0  0
 25 26  1  0  0  0
 26 27  2  0  0  0
  3  4  1  0  0  0
  4  5  2  0  0  0
  4  6  1  0  0  0
  6  7  1  0  0  0
  7  8  1  0  0  0
  8 35  1  0  0  0
 35 36  1  0  0  0
 36 37  2  0  0  0
 36 38  1  0  0  0
 38 39  1  0  0  0
  8  9  1  0  0  0
  9 10  2  0  0  0
  9 11  1  0  0  0
 11 12  2  0  0  0
 12 13  1  0  0  0
 13 14  2  0  0  0
 14 15  1  0  0  0
 14 16  1  0  0  0
 16 17  2  0  0  0
  6  1  1  0  0  0
 17 11  1  0  0  0
 27 18  1  0  0  0
 17  6  1  0  0  0
 27 22  1  0  0  0
 28 29  1  0  0  0
 38 40  1  0  0  0
M  END
> <minimizedAffinity>
-8.36586

> <CNNscore>
0.3428232968

> <CNNaffinity>
6.4442343712

> <CNN_VS>
2.2092337608

> <CNNaffinity_variance>
0.1424585879

$$$$



 40 44  0  0  0  0  0  0  0  0999 V2000
    8.9254   -1.0841   22.8525 C   0  0  0  0  0  0  0  0  0  0  0  0
    8.5659   -0.4722   21.5310 C   0  0  0  0  0  0  0  0  0  0  0  0
    7.0780   -0.5660   21.3662 N   0  0  0  0  0  0  0  0  0  0  0  0
    6.5178   -1.2358   22.5859 C   0  0  0  0  0  0  0  0  0  0  0  0
    5.0701   -1.5332   22.8419 O   0  0  0  0  0  0  0  0  0  0  0  0
    7.6596   -1.5560   23.5045 C   0  0  0  0  0  0  0  0  0  0  0  0
    6.3182   -1.9741   24.0297 C   0  0  0  0  0  0  0  0  0  0  0  0
    6.2127   -2.6480   25.3657 N   0  0  0  0  0  0  0  0  0  0  0  0
    7.4485   -2.9037   26.1764 C   0  0  0  0  0  0  0  0  0  0  0  0
    7.3430   -3.5775   27.5124 O   0  0  0  0  0  0  0  0  0  0  0  0
    8.7900   -2.4856   25.6512 C   0  0  0  0  0  0  0  0  0  0  0  0
   10.0258   -2.7413   26.4619 C   0  0  0  0  0  0  0  0  0  0  0  0
   11.3671   -2.3232   25.9366 C   0  0  0  0  0  0  0  0  0  0  0  0
   11.4727   -1.6494   24.6006 C   0  0  0  0  0  0  0  0  0  0  0  0
   12.6156   -1.3662   24.3007 Cl  0  0  0  0  0  0  0  0  0  0  0  0
   10.2368   -1.3936   23.7899 C   0  0  0  0  0  0  0  0  0  0  0  0
    8.8955   -1.8118   24.3152 C   0  0  0  0  0  0  0  0  0  0  0  0
    6.2887   -0.0759   20.1885 C   0  0  0  0  0  0  0  0  0  0  0  0
    6.4762   -0.7118   18.8430 C   0  0  0  0  0  0  0  0  0  0  0  0
    5.6870   -0.2217   17.6654 N   0  0  0  0  0  0  0  0  0  0  0  0
    4.7102    0.9042   17.8333 C   0  0  0  0  0  0  0  0  0  0  0  0
    4.5227    1.5400   19.1788 C   0  0  0  0  0  0  0  0  0  0  0  0
    3.5458    2.6660   19.3467 C   0  0  0  0  0  0  0  0  0  0  0  0
    3.3583    3.3018   20.6923 C   0  0  0  0  0  0  0  0  0  0  0  0
    4.1476    2.8117   21.8699 C   0  0  0  0  0  0  0  0  0  0  0  0
    5.1244    1.6858   21.7020 C   0  0  0  0  0  0  0  0  0  0  0  0
    5.3119    1.0500   20.3565 C   0  0  0  0  0  0  0  0  0  0  0  0
   10.3079   -1.2032   23.4221 N   0  0  0  0  0  0  0  0  0  0  0  0
   10.5243   -1.9483   24.0842 H   0  0  0  0  0  0  0  0  0  0  0  0
   11.3723   -0.2266   23.0180 S   0  0  0  0  0  0  0  0  0  0  0  0
   11.0831    0.6453   23.8131 O   0  0  0  0  0  0  0  0  0  0  0  0
   11.8630   -1.1912   21.9793 O   0  0  0  0  0  0  0  0  0  0  0  0
   12.1958    2.2236   22.7560 C   0  0  0  0  0  0  0  0  0  0  0  0
   12.4368    0.7499   22.6138 C   0  0  0  0  0  0  0  0  0  0  0  0
    4.8713   -3.0661   25.8909 C   0  0  0  0  0  0  0  0  0  0  0  0
    4.5125   -4.5209   25.9585 C   0  0  0  0  0  0  0  0  0  0  0  0
    4.1605   -5.2656   24.7048 O   0  0  0  0  0  0  0  0  0  0  0  0
    4.5057   -5.2312   27.2796 N   0  0  0  0  0  0  0  0  0  0  0  0
    4.1470   -6.6861   27.3472 C   0  0  0  0  0  0  0  0  0  0  0  0
    4.7368   -4.7424   28.1024 H   0  0  0  0  0  0  0  0  0  0  0  0
 33 34  1  0  0  0
 34 30  1  0  0  0
 30 31  2  0  0  0
 30 32  2  0  0  0
 30 28  1  0  0  0
  1 28  1  0  0  0
  1  2  1  0  0  0
  2  3  1  0  0  0
  3 18  1  0  0  0
 18 19  2  0  0  0
 19 20  1  0  0  0
 20 21  2  0  0  0
 21 22  1  0  0  0
 22 23  2  0  0  0
 23 24  1  0  0  0
 24 25  2  0  0  0
 25 26  1  0  0  0
 26 27  2  0  0  0
  3  4  1  0  0  0
  4  5  2  0  0  0
  4  6  1  0  0  0
  6  7  1  0  0  0
  7  8  1  0  0  0
  8 35  1  0  0  0
 35 36  1  0  0  0
 36 37  2  0  0  0
 36 38  1  0  0  0
 38 39  1  0  0  0
  8  9  1  0  0  0
  9 10  2  0  0  0
  9 11  1  0  0  0
 11 12  2  0  0  0
 12 13  1  0  0  0
 13 14  2  0  0  0
 14 15  1  0  0  0
 14 16  1  0  0  0
 16 17  2  0  0  0
  6  1  1  0  0  0
 17 11  1  0  0  0
 27 18  1  0  0  0
 17  6  1  0  0  0
 27 22  1  0  0  0
 28 29  1  0  0  0
 38 40  1  0  0  0
M  END
> <minimizedAffinity>
-8.30140

> <CNNscore>
0.3267084360

> <CNNaffinity>
6.3734273911

> <CNN_VS>
2.0822525024

> <CNNaffinity_variance>
0.0805561990

$$$$



 40 44  0  0  0  0  0  0  0  0999 V2000
    8.9479   -0.9548   24.7586 C   0  0  0  0  0  0  0  0  0  0  0  0
    7.8202   -1.6903   25.4200 C   0  0  0  0  0  0  0  0  0  0  0  0
    6.6124   -0.8011   25.4008 N   0  0  0  0  0  0  0  0  0  0  0  0
    6.9936    0.4839   24.7275 C   0  0  0  0  0  0  0  0  0  0  0  0
    6.0899    1.6579   24.4924 O   0  0  0  0  0  0  0  0  0  0  0  0
    8.4370    0.3890   24.3306 C   0  0  0  0  0  0  0  0  0  0  0  0
    7.7876    1.6902   23.9631 C   0  0  0  0  0  0  0  0  0  0  0  0
    8.5808    2.7524   23.2614 N   0  0  0  0  0  0  0  0  0  0  0  0
   10.0235    2.5135   22.9272 C   0  0  0  0  0  0  0  0  0  0  0  0
   10.8167    3.5758   22.2255 O   0  0  0  0  0  0  0  0  0  0  0  0
   10.6729    1.2122   23.2947 C   0  0  0  0  0  0  0  0  0  0  0  0
   12.1155    0.9733   22.9606 C   0  0  0  0  0  0  0  0  0  0  0  0
   12.7649   -0.3279   23.3281 C   0  0  0  0  0  0  0  0  0  0  0  0
   11.9717   -1.3902   24.0298 C   0  0  0  0  0  0  0  0  0  0  0  0
   12.6213   -2.3894   24.2662 Cl  0  0  0  0  0  0  0  0  0  0  0  0
   10.5291   -1.1512   24.3639 C   0  0  0  0  0  0  0  0  0  0  0  0
    9.8797    0.1500   23.9964 C   0  0  0  0  0  0  0  0  0  0  0  0
    5.2607   -1.1378   25.9571 C   0  0  0  0  0  0  0  0  0  0  0  0
    4.0231   -0.6236   25.2836 C   0  0  0  0  0  0  0  0  0  0  0  0
    2.6714   -0.9603   25.8399 N   0  0  0  0  0  0  0  0  0  0  0  0
    2.5574   -1.8112   27.0699 C   0  0  0  0  0  0  0  0  0  0  0  0
    3.7950   -2.3255   27.7435 C   0  0  0  0  0  0  0  0  0  0  0  0
    3.6809   -3.1765   28.9735 C   0  0  0  0  0  0  0  0  0  0  0  0
    4.9187   -3.6907   29.6471 C   0  0  0  0  0  0  0  0  0  0  0  0
    6.2703   -3.3540   29.0907 C   0  0  0  0  0  0  0  0  0  0  0  0
    6.3843   -2.5030   27.8607 C   0  0  0  0  0  0  0  0  0  0  0  0
    5.1467   -1.9888   27.1871 C   0  0  0  0  0  0  0  0  0  0  0  0
   10.3417   -1.4723   24.5601 N   0  0  0  0  0  0  0  0  0  0  0  0
   10.9713   -1.0045   23.9081 H   0  0  0  0  0  0  0  0  0  0  0  0
   10.8098   -2.6777   25.3204 S   0  0  0  0  0  0  0  0  0  0  0  0
   11.2906   -2.0808   26.2630 O   0  0  0  0  0  0  0  0  0  0  0  0
   10.2691   -3.5682   24.2412 O   0  0  0  0  0  0  0  0  0  0  0  0
   10.4285   -4.4547   27.1770 C   0  0  0  0  0  0  0  0  0  0  0  0
   11.2778   -3.8831   26.0806 C   0  0  0  0  0  0  0  0  0  0  0  0
    7.9314    4.0537   22.8939 C   0  0  0  0  0  0  0  0  0  0  0  0
    8.4445    5.3382   23.4740 C   0  0  0  0  0  0  0  0  0  0  0  0
    7.5831    6.1369   24.4068 O   0  0  0  0  0  0  0  0  0  0  0  0
    9.8191    5.8241   23.1213 N   0  0  0  0  0  0  0  0  0  0  0  0
   10.3324    7.1087   23.7014 C   0  0  0  0  0  0  0  0  0  0  0  0
   10.3845    5.2999   22.5091 H   0  0  0  0  0  0  0  0  0  0  0  0
 33 34  1  0  0  0
 34 30  1  0  0  0
 30 31  2  0  0  0
 30 32  2  0  0  0
 30 28  1  0  0  0
  1 28  1  0  0  0
  1  2  1  0  0  0
  2  3  1  0  0  0
  3 18  1  0  0  0
 18 19  2  0  0  0
 19 20  1  0  0  0
 20 21  2  0  0  0
 21 22  1  0  0  0
 22 23  2  0  0  0
 23 24  1  0  0  0
 24 25  2  0  0  0
 25 26  1  0  0  0
 26 27  2  0  0  0
  3  4  1  0  0  0
  4  5  2  0  0  0
  4  6  1  0  0  0
  6  7  1  0  0  0
  7  8  1  0  0  0
  8 35  1  0  0  0
 35 36  1  0  0  0
 36 37  2  0  0  0
 36 38  1  0  0  0
 38 39  1  0  0  0
  8  9  1  0  0  0
  9 10  2  0  0  0
  9 11  1  0  0  0
 11 12  2  0  0  0
 12 13  1  0  0  0
 13 14  2  0  0  0
 14 15  1  0  0  0
 14 16  1  0  0  0
 16 17  2  0  0  0
  6  1  1  0  0  0
 17 11  1  0  0  0
 27 18  1  0  0  0
 17  6  1  0  0  0
 27 22  1  0  0  0
 28 29  1  0  0  0
 38 40  1  0  0  0
M  END
> <minimizedAffinity>
-7.03394

> <CNNscore>
0.2869359851

> <CNNaffinity>
6.3195371628

> <CNN_VS>
1.8133026361

> <CNNaffinity_variance>
0.1219935417

$$$$



 40 44  0  0  0  0  0  0  0  0999 V2000
    6.7431    0.4483   22.7957 C   0  0  0  0  0  0  0  0  0  0  0  0
    8.1619   -0.0204   22.6638 C   0  0  0  0  0  0  0  0  0  0  0  0
    8.7452   -0.1261   24.0417 N   0  0  0  0  0  0  0  0  0  0  0  0
    7.6868    0.2771   25.0252 C   0  0  0  0  0  0  0  0  0  0  0  0
    7.8391    0.3182   26.5169 O   0  0  0  0  0  0  0  0  0  0  0  0
    6.4495    0.6321   24.2552 C   0  0  0  0  0  0  0  0  0  0  0  0
    6.3034    0.7697   25.7417 C   0  0  0  0  0  0  0  0  0  0  0  0
    5.0011    1.2281   26.3281 N   0  0  0  0  0  0  0  0  0  0  0  0
    3.8449    1.5489   25.4280 C   0  0  0  0  0  0  0  0  0  0  0  0
    2.5426    2.0073   26.0144 O   0  0  0  0  0  0  0  0  0  0  0  0
    3.9909    1.4113   23.9414 C   0  0  0  0  0  0  0  0  0  0  0  0
    2.8346    1.7321   23.0414 C   0  0  0  0  0  0  0  0  0  0  0  0
    2.9807    1.5945   21.5549 C   0  0  0  0  0  0  0  0  0  0  0  0
    4.2830    1.1361   20.9685 C   0  0  0  0  0  0  0  0  0  0  0  0
    4.2603    1.0699   19.7554 Cl  0  0  0  0  0  0  0  0  0  0  0  0
    5.4393    0.8153   21.8685 C   0  0  0  0  0  0  0  0  0  0  0  0
    5.2932    0.9529   23.3550 C   0  0  0  0  0  0  0  0  0  0  0  0
   10.1416   -0.5591   24.3772 C   0  0  0  0  0  0  0  0  0  0  0  0
   11.3130    0.2322   23.8760 C   0  0  0  0  0  0  0  0  0  0  0  0
   12.7094   -0.2008   24.2115 N   0  0  0  0  0  0  0  0  0  0  0  0
   12.9343   -1.4252   25.0483 C   0  0  0  0  0  0  0  0  0  0  0  0
   11.7627   -2.2166   25.5496 C   0  0  0  0  0  0  0  0  0  0  0  0
   11.9877   -3.4410   26.3864 C   0  0  0  0  0  0  0  0  0  0  0  0
   10.8161   -4.2323   26.8877 C   0  0  0  0  0  0  0  0  0  0  0  0
    9.4198   -3.7993   26.5521 C   0  0  0  0  0  0  0  0  0  0  0  0
    9.1949   -2.5749   25.7153 C   0  0  0  0  0  0  0  0  0  0  0  0
   10.3664   -1.7836   25.2141 C   0  0  0  0  0  0  0  0  0  0  0  0
    5.7860    0.6905   21.6665 N   0  0  0  0  0  0  0  0  0  0  0  0
    4.8604    1.0748   21.8560 H   0  0  0  0  0  0  0  0  0  0  0  0
    6.1900    0.3675   20.2584 S   0  0  0  0  0  0  0  0  0  0  0  0
    6.6877    1.4443   19.9964 O   0  0  0  0  0  0  0  0  0  0  0  0
    5.6204   -1.0117   20.4115 O   0  0  0  0  0  0  0  0  0  0  0  0
    5.5532   -0.0477   17.7741 C   0  0  0  0  0  0  0  0  0  0  0  0
    6.5938    0.0444   18.8504 C   0  0  0  0  0  0  0  0  0  0  0  0
    4.8551    1.3657   27.8147 C   0  0  0  0  0  0  0  0  0  0  0  0
    5.8291    2.2027   28.5897 C   0  0  0  0  0  0  0  0  0  0  0  0
    6.3171    3.5032   28.0234 O   0  0  0  0  0  0  0  0  0  0  0  0
    6.3150    1.7393   29.9309 N   0  0  0  0  0  0  0  0  0  0  0  0
    7.2891    2.5763   30.7060 C   0  0  0  0  0  0  0  0  0  0  0  0
    5.9947    0.8858   30.3026 H   0  0  0  0  0  0  0  0  0  0  0  0
 33 34  1  0  0  0
 34 30  1  0  0  0
 30 31  2  0  0  0
 30 32  2  0  0  0
 30 28  1  0  0  0
  1 28  1  0  0  0
  1  2  1  0  0  0
  2  3  1  0  0  0
  3 18  1  0  0  0
 18 19  2  0  0  0
 19 20  1  0  0  0
 20 21  2  0  0  0
 21 22  1  0  0  0
 22 23  2  0  0  0
 23 24  1  0  0  0
 24 25  2  0  0  0
 25 26  1  0  0  0
 26 27  2  0  0  0
  3  4  1  0  0  0
  4  5  2  0  0  0
  4  6  1  0  0  0
  6  7  1  0  0  0
  7  8  1  0  0  0
  8 35  1  0  0  0
 35 36  1  0  0  0
 36 37  2  0  0  0
 36 38  1  0  0  0
 38 39  1  0  0  0
  8  9  1  0  0  0
  9 10  2  0  0  0
  9 11  1  0  0  0
 11 12  2  0  0  0
 12 13  1  0  0  0
 13 14  2  0  0  0
 14 15  1  0  0  0
 14 16  1  0  0  0
 16 17  2  0  0  0
  6  1  1  0  0  0
 17 11  1  0  0  0
 27 18  1  0  0  0
 17  6  1  0  0  0
 27 22  1  0  0  0
 28 29  1  0  0  0
 38 40  1  0  0  0
M  END
> <minimizedAffinity>
-7.36202

> <CNNscore>
0.2845094204

> <CNNaffinity>
6.0836563110

> <CNN_VS>
1.7308574915

> <CNNaffinity_variance>
0.1042835936

$$$$



 40 44  0  0  0  0  0  0  0  0999 V2000
    9.2250   -1.3231   23.2706 C   0  0  0  0  0  0  0  0  0  0  0  0
    9.0597   -2.7701   23.6295 C   0  0  0  0  0  0  0  0  0  0  0  0
    7.6149   -3.1304   23.4483 N   0  0  0  0  0  0  0  0  0  0  0  0
    6.8874   -1.9061   22.9775 C   0  0  0  0  0  0  0  0  0  0  0  0
    5.4220   -1.8148   22.6704 O   0  0  0  0  0  0  0  0  0  0  0  0
    7.8825   -0.7891   22.8677 C   0  0  0  0  0  0  0  0  0  0  0  0
    6.4836   -0.3989   22.4927 C   0  0  0  0  0  0  0  0  0  0  0  0
    6.1880    1.0055   22.0565 N   0  0  0  0  0  0  0  0  0  0  0  0
    7.2914    2.0198   21.9953 C   0  0  0  0  0  0  0  0  0  0  0  0
    6.9959    3.4242   21.5591 O   0  0  0  0  0  0  0  0  0  0  0  0
    8.6905    1.6296   22.3703 C   0  0  0  0  0  0  0  0  0  0  0  0
    9.7939    2.6438   22.3091 C   0  0  0  0  0  0  0  0  0  0  0  0
   11.1928    2.2536   22.6841 C   0  0  0  0  0  0  0  0  0  0  0  0
   11.4883    0.8492   23.1203 C   0  0  0  0  0  0  0  0  0  0  0  0
   12.6592    0.6734   23.3934 Cl  0  0  0  0  0  0  0  0  0  0  0  0
   10.3849   -0.1650   23.1815 C   0  0  0  0  0  0  0  0  0  0  0  0
    8.9860    0.2252   22.8065 C   0  0  0  0  0  0  0  0  0  0  0  0
    7.0048   -4.4784   23.6947 C   0  0  0  0  0  0  0  0  0  0  0  0
    7.2791   -5.6100   22.7492 C   0  0  0  0  0  0  0  0  0  0  0  0
    6.6689   -6.9579   22.9956 N   0  0  0  0  0  0  0  0  0  0  0  0
    5.7844   -7.1742   24.1876 C   0  0  0  0  0  0  0  0  0  0  0  0
    5.5101   -6.0426   25.1332 C   0  0  0  0  0  0  0  0  0  0  0  0
    4.6255   -6.2589   26.3252 C   0  0  0  0  0  0  0  0  0  0  0  0
    4.3512   -5.1272   27.2707 C   0  0  0  0  0  0  0  0  0  0  0  0
    4.9614   -3.7793   27.0243 C   0  0  0  0  0  0  0  0  0  0  0  0
    5.8459   -3.5630   25.8323 C   0  0  0  0  0  0  0  0  0  0  0  0
    6.1202   -4.6946   24.8868 C   0  0  0  0  0  0  0  0  0  0  0  0
   10.5078   -0.5465   23.3082 N   0  0  0  0  0  0  0  0  0  0  0  0
   10.5172    0.4361   23.0346 H   0  0  0  0  0  0  0  0  0  0  0  0
   11.7767   -1.2147   23.7479 S   0  0  0  0  0  0  0  0  0  0  0  0
   12.1410   -1.5794   22.6479 O   0  0  0  0  0  0  0  0  0  0  0  0
   11.4793   -0.8431   25.1705 O   0  0  0  0  0  0  0  0  0  0  0  0
   13.3953   -1.9428   25.6452 C   0  0  0  0  0  0  0  0  0  0  0  0
   13.0455   -1.8829   24.1878 C   0  0  0  0  0  0  0  0  0  0  0  0
    4.7890    1.3957   21.6814 C   0  0  0  0  0  0  0  0  0  0  0  0
    4.3306    1.2681   20.2590 C   0  0  0  0  0  0  0  0  0  0  0  0
    2.8926    1.5133   19.9095 O   0  0  0  0  0  0  0  0  0  0  0  0
    5.3101    0.8953   19.1859 N   0  0  0  0  0  0  0  0  0  0  0  0
    4.8517    0.7676   17.7634 C   0  0  0  0  0  0  0  0  0  0  0  0
    6.2539    0.7344   19.4153 H   0  0  0  0  0  0  0  0  0  0  0  0
 33 34  1  0  0  0
 34 30  1  0  0  0
 30 31  2  0  0  0
 30 32  2  0  0  0
 30 28  1  0  0  0
  1 28  1  0  0  0
  1  2  1  0  0  0
  2  3  1  0  0  0
  3 18  1  0  0  0
 18 19  2  0  0  0
 19 20  1  0  0  0
 20 21  2  0  0  0
 21 22  1  0  0  0
 22 23  2  0  0  0
 23 24  1  0  0  0
 24 25  2  0  0  0
 25 26  1  0  0  0
 26 27  2  0  0  0
  3  4  1  0  0  0
  4  5  2  0  0  0
  4  6  1  0  0  0
  6  7  1  0  0  0
  7  8  1  0  0  0
  8 35  1  0  0  0
 35 36  1  0  0  0
 36 37  2  0  0  0
 36 38  1  0  0  0
 38 39  1  0  0  0
  8  9  1  0  0  0
  9 10  2  0  0  0
  9 11  1  0  0  0
 11 12  2  0  0  0
 12 13  1  0  0  0
 13 14  2  0  0  0
 14 15  1  0  0  0
 14 16  1  0  0  0
 16 17  2  0  0  0
  6  1  1  0  0  0
 17 11  1  0  0  0
 27 18  1  0  0  0
 17  6  1  0  0  0
 27 22  1  0  0  0
 28 29  1  0  0  0
 38 40  1  0  0  0
M  END
> <minimizedAffinity>
-8.26417

> <CNNscore>
0.2601200938

> <CNNaffinity>
6.4586210251

> <CNN_VS>
1.6800171137

> <CNNaffinity_variance>
0.2487419546

$$$$
