


 39 44  0  0  0  0  0  0  0  0999 V2000
    9.2785    0.8153   22.8987 N   0  0  0  0  0  0  0  0  0  0  0  0
    8.1518   -0.1714   22.8154 C   0  0  0  0  0  0  0  0  0  0  0  0
    8.2526   -1.4870   23.5288 C   0  0  0  0  0  0  0  0  0  0  0  0
    8.2108   -2.8351   24.1853 C   0  0  0  0  0  0  0  0  0  0  0  0
    8.8941   -3.5466   24.8946 O   0  0  0  0  0  0  0  0  0  0  0  0
    6.9022   -3.4801   23.8365 N   0  0  0  0  0  0  0  0  0  0  0  0
    6.1353   -2.5306   22.9645 C   0  0  0  0  0  0  0  0  0  0  0  0
    6.9699   -1.2989   22.7744 C   0  0  0  0  0  0  0  0  0  0  0  0
    9.4802   -1.8159   24.3257 C   0  0  0  0  0  0  0  0  0  0  0  0
    9.5810   -3.1315   25.0392 C   0  0  0  0  0  0  0  0  0  0  0  0
   10.8085   -3.4604   25.8360 C   0  0  0  0  0  0  0  0  0  0  0  0
   10.9093   -4.7760   26.5495 Cl  0  0  0  0  0  0  0  0  0  0  0  0
   11.9352   -2.4737   25.9194 C   0  0  0  0  0  0  0  0  0  0  0  0
   11.8344   -1.1581   25.2059 C   0  0  0  0  0  0  0  0  0  0  0  0
   10.6069   -0.8292   24.4091 C   0  0  0  0  0  0  0  0  0  0  0  0
   10.5061    0.4864   23.6956 C   0  0  0  0  0  0  0  0  0  0  0  0
   11.6328    1.4731   23.7789 O   0  0  0  0  0  0  0  0  0  0  0  0
    6.4415   -4.8364   24.2816 C   0  0  0  0  0  0  0  0  0  0  0  0
    7.0564   -6.0694   23.6886 C   0  0  0  0  0  0  0  0  0  0  0  0
    6.5956   -7.4257   24.1337 N   0  0  0  0  0  0  0  0  0  0  0  0
    5.5200   -7.5490   25.1719 C   0  0  0  0  0  0  0  0  0  0  0  0
    4.9052   -6.3160   25.7649 C   0  0  0  0  0  0  0  0  0  0  0  0
    3.8295   -6.4394   26.8032 C   0  0  0  0  0  0  0  0  0  0  0  0
    3.2147   -5.2064   27.3962 C   0  0  0  0  0  0  0  0  0  0  0  0
    3.6754   -3.8501   26.9511 C   0  0  0  0  0  0  0  0  0  0  0  0
    4.7510   -3.7268   25.9129 C   0  0  0  0  0  0  0  0  0  0  0  0
    5.3659   -4.9597   25.3198 C   0  0  0  0  0  0  0  0  0  0  0  0
    9.1777    2.1309   22.1852 C   0  0  0  0  0  0  0  0  0  0  0  0
    8.4160    5.7548   23.6124 C   0  0  0  0  0  0  0  0  0  0  0  0
    9.1377    4.6070   22.9707 N   0  0  0  0  0  0  0  0  0  0  0  0
    8.4560    3.2787   22.8269 C   0  0  0  0  0  0  0  0  0  0  0  0
    7.0525    3.0980   23.3247 O   0  0  0  0  0  0  0  0  0  0  0  0
   10.0588    4.7256   22.6439 H   0  0  0  0  0  0  0  0  0  0  0  0
    6.5887   -0.0910   21.9708 C   0  0  0  0  0  0  0  0  0  0  0  0
    6.4057   -0.2048   20.4864 C   0  0  0  0  0  0  0  0  0  0  0  0
    7.0540    0.6634   19.4491 N   0  0  0  0  0  0  0  0  0  0  0  0
    6.5913    0.1980   18.1003 N   0  0  0  0  0  0  0  0  0  0  0  0
    5.6572   -0.9577   18.3039 N   0  0  0  0  0  0  0  0  0  0  0  0
    5.5425   -1.2067   19.7786 N   0  0  0  0  0  0  0  0  0  0  0  0
 29 30  1  0  0  0
 30 31  1  0  0  0
 31 32  2  0  0  0
 31 28  1  0  0  0
 28  1  1  0  0  0
  1  2  1  0  0  0
  3  2  1  0  0  0
  3  4  1  0  0  0
  4  5  2  0  0  0
  4  6  1  0  0  0
  6 18  1  0  0  0
 18 19  2  0  0  0
 19 20  1  0  0  0
 20 21  2  0  0  0
 21 22  1  0  0  0
 22 23  2  0  0  0
 23 24  1  0  0  0
 24 25  2  0  0  0
 25 26  1  0  0  0
 26 27  2  0  0  0
  6  7  1  0  0  0
  7  8  1  0  0  0
  8 34  1  0  0  0
 34 35  1  0  0  0
 35 36  1  0  0  0
 36 37  2  0  0  0
 37 38  1  0  0  0
 38 39  1  0  0  0
  3  9  1  0  0  0
  9 10  2  0  0  0
 10 11  1  0  0  0
 11 12  1  0  0  0
 11 13  2  0  0  0
 13 14  1  0  0  0
 14 15  2  0  0  0
 15 16  1  0  0  0
 16 17  2  0  0  0
 16  1  1  0  0  0
  8  3  1  0  0  0
 39 35  2  0  0  0
 15  9  1  0  0  0
 27 18  1  0  0  0
 27 22  1  0  0  0
 30 33  1  0  0  0
M  CHG 1  38  -1
M  END
> <minimizedAffinity>
-9.66841

> <CNNscore>
0.5456890464

> <CNNaffinity>
7.2526597977

> <CNN_VS>
3.9576969147

> <CNNaffinity_variance>
0.1771766990

$$$$



 39 44  0  0  0  0  0  0  0  0999 V2000
    5.3595    3.4587   22.4076 N   0  0  0  0  0  0  0  0  0  0  0  0
    6.1931    2.2127   22.3562 C   0  0  0  0  0  0  0  0  0  0  0  0
    6.6498    1.5629   23.6286 C   0  0  0  0  0  0  0  0  0  0  0  0
    7.1771    0.8054   24.8110 C   0  0  0  0  0  0  0  0  0  0  0  0
    7.1672    0.8506   26.0252 O   0  0  0  0  0  0  0  0  0  0  0  0
    7.9557   -0.3700   24.2989 N   0  0  0  0  0  0  0  0  0  0  0  0
    7.9097   -0.3390   22.8000 C   0  0  0  0  0  0  0  0  0  0  0  0
    7.1026    0.8556   22.3857 C   0  0  0  0  0  0  0  0  0  0  0  0
    6.2729    2.1590   24.9525 C   0  0  0  0  0  0  0  0  0  0  0  0
    6.7296    1.5091   26.2249 C   0  0  0  0  0  0  0  0  0  0  0  0
    6.3527    2.1052   27.5487 C   0  0  0  0  0  0  0  0  0  0  0  0
    6.8093    1.4553   28.8212 Cl  0  0  0  0  0  0  0  0  0  0  0  0
    5.5190    3.3511   27.6001 C   0  0  0  0  0  0  0  0  0  0  0  0
    5.0623    4.0010   26.3277 C   0  0  0  0  0  0  0  0  0  0  0  0
    5.4393    3.4049   25.0039 C   0  0  0  0  0  0  0  0  0  0  0  0
    4.9826    4.0548   23.7314 C   0  0  0  0  0  0  0  0  0  0  0  0
    4.1489    5.3007   23.7828 O   0  0  0  0  0  0  0  0  0  0  0  0
    8.6572   -1.3963   25.1384 C   0  0  0  0  0  0  0  0  0  0  0  0
    7.8598   -2.3684   25.9565 C   0  0  0  0  0  0  0  0  0  0  0  0
    8.5613   -3.3946   26.7960 N   0  0  0  0  0  0  0  0  0  0  0  0
   10.0601   -3.4487   26.8174 C   0  0  0  0  0  0  0  0  0  0  0  0
   10.8575   -2.4766   25.9994 C   0  0  0  0  0  0  0  0  0  0  0  0
   12.3565   -2.5308   26.0208 C   0  0  0  0  0  0  0  0  0  0  0  0
   13.1537   -1.5586   25.2027 C   0  0  0  0  0  0  0  0  0  0  0  0
   12.4523   -0.5324   24.3632 C   0  0  0  0  0  0  0  0  0  0  0  0
   10.9534   -0.4783   24.3418 C   0  0  0  0  0  0  0  0  0  0  0  0
   10.1560   -1.4504   25.1599 C   0  0  0  0  0  0  0  0  0  0  0  0
    4.9028    4.1086   21.1351 C   0  0  0  0  0  0  0  0  0  0  0  0
    1.1793    4.2938   19.7745 C   0  0  0  0  0  0  0  0  0  0  0  0
    2.4825    4.6984   20.3975 N   0  0  0  0  0  0  0  0  0  0  0  0
    3.5997    3.7040   20.5121 C   0  0  0  0  0  0  0  0  0  0  0  0
    3.4137    2.3051   20.0037 O   0  0  0  0  0  0  0  0  0  0  0  0
    2.6046    5.6165   20.7312 H   0  0  0  0  0  0  0  0  0  0  0  0
    6.8012    1.2701   20.9760 C   0  0  0  0  0  0  0  0  0  0  0  0
    6.3247    0.2539   19.9809 C   0  0  0  0  0  0  0  0  0  0  0  0
    6.6407    0.2402   18.5146 N   0  0  0  0  0  0  0  0  0  0  0  0
    5.9599   -0.9492   17.9049 N   0  0  0  0  0  0  0  0  0  0  0  0
    5.2232   -1.6706   18.9943 N   0  0  0  0  0  0  0  0  0  0  0  0
    5.4487   -0.9270   20.2773 N   0  0  0  0  0  0  0  0  0  0  0  0
 29 30  1  0  0  0
 30 31  1  0  0  0
 31 32  2  0  0  0
 31 28  1  0  0  0
 28  1  1  0  0  0
  1  2  1  0  0  0
  3  2  1  0  0  0
  3  4  1  0  0  0
  4  5  2  0  0  0
  4  6  1  0  0  0
  6 18  1  0  0  0
 18 19  2  0  0  0
 19 20  1  0  0  0
 20 21  2  0  0  0
 21 22  1  0  0  0
 22 23  2  0  0  0
 23 24  1  0  0  0
 24 25  2  0  0  0
 25 26  1  0  0  0
 26 27  2  0  0  0
  6  7  1  0  0  0
  7  8  1  0  0  0
  8 34  1  0  0  0
 34 35  1  0  0  0
 35 36  1  0  0  0
 36 37  2  0  0  0
 37 38  1  0  0  0
 38 39  1  0  0  0
  3  9  1  0  0  0
  9 10  2  0  0  0
 10 11  1  0  0  0
 11 12  1  0  0  0
 11 13  2  0  0  0
 13 14  1  0  0  0
 14 15  2  0  0  0
 15 16  1  0  0  0
 16 17  2  0  0  0
 16  1  1  0  0  0
  8  3  1  0  0  0
 39 35  2  0  0  0
 15  9  1  0  0  0
 27 18  1  0  0  0
 27 22  1  0  0  0
 30 33  1  0  0  0
M  CHG 1  38  -1
M  END
> <minimizedAffinity>
-8.46885

> <CNNscore>
0.4355088770

> <CNNaffinity>
6.7889814377

> <CNN_VS>
2.9566617012

> <CNNaffinity_variance>
0.0485579520

$$$$



 39 44  0  0  0  0  0  0  0  0999 V2000
    7.3900    4.3777   23.7783 N   0  0  0  0  0  0  0  0  0  0  0  0
    8.1878    3.1441   23.4752 C   0  0  0  0  0  0  0  0  0  0  0  0
    7.9811    1.8993   24.2862 C   0  0  0  0  0  0  0  0  0  0  0  0
    7.8844    0.5875   25.0071 C   0  0  0  0  0  0  0  0  0  0  0  0
    7.2744    0.0711   25.9223 O   0  0  0  0  0  0  0  0  0  0  0  0
    8.8591   -0.3617   24.3754 N   0  0  0  0  0  0  0  0  0  0  0  0
    9.5583    0.3635   23.2640 C   0  0  0  0  0  0  0  0  0  0  0  0
    9.0157    1.7609   23.2089 C   0  0  0  0  0  0  0  0  0  0  0  0
    6.9767    1.8880   25.4003 C   0  0  0  0  0  0  0  0  0  0  0  0
    6.7701    0.6432   26.2112 C   0  0  0  0  0  0  0  0  0  0  0  0
    5.7658    0.6319   27.3252 C   0  0  0  0  0  0  0  0  0  0  0  0
    5.5591   -0.6130   28.1362 Cl  0  0  0  0  0  0  0  0  0  0  0  0
    4.9681    1.8655   27.6283 C   0  0  0  0  0  0  0  0  0  0  0  0
    5.1747    3.1104   26.8174 C   0  0  0  0  0  0  0  0  0  0  0  0
    6.1790    3.1216   25.7034 C   0  0  0  0  0  0  0  0  0  0  0  0
    6.3857    4.3665   24.8924 C   0  0  0  0  0  0  0  0  0  0  0  0
    5.5880    5.6001   25.1955 O   0  0  0  0  0  0  0  0  0  0  0  0
    9.0935   -1.7859   24.7835 C   0  0  0  0  0  0  0  0  0  0  0  0
    7.9993   -2.8002   24.6288 C   0  0  0  0  0  0  0  0  0  0  0  0
    8.2337   -4.2245   25.0368 N   0  0  0  0  0  0  0  0  0  0  0  0
    9.5623   -4.6345   25.5996 C   0  0  0  0  0  0  0  0  0  0  0  0
   10.6565   -3.6202   25.7543 C   0  0  0  0  0  0  0  0  0  0  0  0
   11.9851   -4.0302   26.3172 C   0  0  0  0  0  0  0  0  0  0  0  0
   13.0793   -3.0158   26.4719 C   0  0  0  0  0  0  0  0  0  0  0  0
   12.8449   -1.5915   26.0638 C   0  0  0  0  0  0  0  0  0  0  0  0
   11.5163   -1.1816   25.5010 C   0  0  0  0  0  0  0  0  0  0  0  0
   10.4221   -2.1959   25.3463 C   0  0  0  0  0  0  0  0  0  0  0  0
    7.5967    5.6226   22.9674 C   0  0  0  0  0  0  0  0  0  0  0  0
   10.9686    7.6906   22.6451 C   0  0  0  0  0  0  0  0  0  0  0  0
    9.8400    6.7592   22.3150 N   0  0  0  0  0  0  0  0  0  0  0  0
    8.7253    6.5540   23.2974 C   0  0  0  0  0  0  0  0  0  0  0  0
    8.7390    7.2801   24.6099 O   0  0  0  0  0  0  0  0  0  0  0  0
    9.8310    6.2827   21.4536 H   0  0  0  0  0  0  0  0  0  0  0  0
    9.4341    2.8318   22.2455 C   0  0  0  0  0  0  0  0  0  0  0  0
   10.8203    3.4008   22.3123 C   0  0  0  0  0  0  0  0  0  0  0  0
   11.4494    4.3112   21.2997 N   0  0  0  0  0  0  0  0  0  0  0  0
   12.8387    4.6324   21.7649 N   0  0  0  0  0  0  0  0  0  0  0  0
   13.0684    3.9205   23.0651 N   0  0  0  0  0  0  0  0  0  0  0  0
   11.8210    3.1593   23.4033 N   0  0  0  0  0  0  0  0  0  0  0  0
 29 30  1  0  0  0
 30 31  1  0  0  0
 31 32  2  0  0  0
 31 28  1  0  0  0
 28  1  1  0  0  0
  1  2  1  0  0  0
  3  2  1  0  0  0
  3  4  1  0  0  0
  4  5  2  0  0  0
  4  6  1  0  0  0
  6 18  1  0  0  0
 18 19  2  0  0  0
 19 20  1  0  0  0
 20 21  2  0  0  0
 21 22  1  0  0  0
 22 23  2  0  0  0
 23 24  1  0  0  0
 24 25  2  0  0  0
 25 26  1  0  0  0
 26 27  2  0  0  0
  6  7  1  0  0  0
  7  8  1  0  0  0
  8 34  1  0  0  0
 34 35  1  0  0  0
 35 36  1  0  0  0
 36 37  2  0  0  0
 37 38  1  0  0  0
 38 39  1  0  0  0
  3  9  1  0  0  0
  9 10  2  0  0  0
 10 11  1  0  0  0
 11 12  1  0  0  0
 11 13  2  0  0  0
 13 14  1  0  0  0
 14 15  2  0  0  0
 15 16  1  0  0  0
 16 17  2  0  0  0
 16  1  1  0  0  0
  8  3  1  0  0  0
 39 35  2  0  0  0
 15  9  1  0  0  0
 27 18  1  0  0  0
 27 22  1  0  0  0
 30 33  1  0  0  0
M  CHG 1  38  -1
M  END
> <minimizedAffinity>
-7.99112

> <CNNscore>
0.4324128032

> <CNNaffinity>
6.6297531128

> <CNN_VS>
2.8667900562

> <CNNaffinity_variance>
0.5897113085

$$$$



 39 44  0  0  0  0  0  0  0  0999 V2000
   10.0224    0.7056   23.1375 N   0  0  0  0  0  0  0  0  0  0  0  0
    8.6637    0.1045   23.3440 C   0  0  0  0  0  0  0  0  0  0  0  0
    8.4952   -1.0718   24.2594 C   0  0  0  0  0  0  0  0  0  0  0  0
    8.1738   -2.2431   25.1395 C   0  0  0  0  0  0  0  0  0  0  0  0
    8.7272   -3.0263   25.8857 O   0  0  0  0  0  0  0  0  0  0  0  0
    6.6993   -2.5024   25.0460 N   0  0  0  0  0  0  0  0  0  0  0  0
    6.1094   -1.4912   24.1082 C   0  0  0  0  0  0  0  0  0  0  0  0
    7.2194   -0.6071   23.6220 C   0  0  0  0  0  0  0  0  0  0  0  0
    9.6854   -1.6469   24.9684 C   0  0  0  0  0  0  0  0  0  0  0  0
    9.5169   -2.8232   25.8838 C   0  0  0  0  0  0  0  0  0  0  0  0
   10.7071   -3.3983   26.5928 C   0  0  0  0  0  0  0  0  0  0  0  0
   10.5387   -4.5745   27.5083 Cl  0  0  0  0  0  0  0  0  0  0  0  0
   12.0658   -2.7971   26.3864 C   0  0  0  0  0  0  0  0  0  0  0  0
   12.2343   -1.6209   25.4709 C   0  0  0  0  0  0  0  0  0  0  0  0
   11.0441   -1.0458   24.7620 C   0  0  0  0  0  0  0  0  0  0  0  0
   11.2126    0.1305   23.8465 C   0  0  0  0  0  0  0  0  0  0  0  0
   12.5713    0.7316   23.6400 O   0  0  0  0  0  0  0  0  0  0  0  0
    5.9469   -3.5831   25.7643 C   0  0  0  0  0  0  0  0  0  0  0  0
    5.5726   -4.8435   25.0423 C   0  0  0  0  0  0  0  0  0  0  0  0
    4.8202   -5.9241   25.7606 N   0  0  0  0  0  0  0  0  0  0  0  0
    4.4420   -5.7444   27.2009 C   0  0  0  0  0  0  0  0  0  0  0  0
    4.8163   -4.4840   27.9230 C   0  0  0  0  0  0  0  0  0  0  0  0
    4.4381   -4.3044   29.3635 C   0  0  0  0  0  0  0  0  0  0  0  0
    4.8125   -3.0439   30.0854 C   0  0  0  0  0  0  0  0  0  0  0  0
    5.5649   -1.9633   29.3671 C   0  0  0  0  0  0  0  0  0  0  0  0
    5.9430   -2.1430   27.9268 C   0  0  0  0  0  0  0  0  0  0  0  0
    5.5687   -3.4034   27.2047 C   0  0  0  0  0  0  0  0  0  0  0  0
   10.1909    1.8819   22.2220 C   0  0  0  0  0  0  0  0  0  0  0  0
   10.5859    5.7511   23.0114 C   0  0  0  0  0  0  0  0  0  0  0  0
   10.8877    4.3672   22.5177 N   0  0  0  0  0  0  0  0  0  0  0  0
    9.8890    3.2658   22.7158 C   0  0  0  0  0  0  0  0  0  0  0  0
    8.5883    3.5482   23.4076 O   0  0  0  0  0  0  0  0  0  0  0  0
   11.7414    4.1819   22.0636 H   0  0  0  0  0  0  0  0  0  0  0  0
    7.0782    0.5404   22.6662 C   0  0  0  0  0  0  0  0  0  0  0  0
    6.6182    0.2931   21.2602 C   0  0  0  0  0  0  0  0  0  0  0  0
    5.3447   -0.3888   20.8562 N   0  0  0  0  0  0  0  0  0  0  0  0
    5.2903   -0.4192   19.3575 N   0  0  0  0  0  0  0  0  0  0  0  0
    6.5303    0.2440   18.8352 N   0  0  0  0  0  0  0  0  0  0  0  0
    7.3509    0.6841   20.0111 N   0  0  0  0  0  0  0  0  0  0  0  0
 29 30  1  0  0  0
 30 31  1  0  0  0
 31 32  2  0  0  0
 31 28  1  0  0  0
 28  1  1  0  0  0
  1  2  1  0  0  0
  3  2  1  0  0  0
  3  4  1  0  0  0
  4  5  2  0  0  0
  4  6  1  0  0  0
  6 18  1  0  0  0
 18 19  2  0  0  0
 19 20  1  0  0  0
 20 21  2  0  0  0
 21 22  1  0  0  0
 22 23  2  0  0  0
 23 24  1  0  0  0
 24 25  2  0  0  0
 25 26  1  0  0  0
 26 27  2  0  0  0
  6  7  1  0  0  0
  7  8  1  0  0  0
  8 34  1  0  0  0
 34 35  1  0  0  0
 35 36  1  0  0  0
 36 37  2  0  0  0
 37 38  1  0  0  0
 38 39  1  0  0  0
  3  9  1  0  0  0
  9 10  2  0  0  0
 10 11  1  0  0  0
 11 12  1  0  0  0
 11 13  2  0  0  0
 13 14  1  0  0  0
 14 15  2  0  0  0
 15 16  1  0  0  0
 16 17  2  0  0  0
 16  1  1  0  0  0
  8  3  1  0  0  0
 39 35  2  0  0  0
 15  9  1  0  0  0
 27 18  1  0  0  0
 27 22  1  0  0  0
 30 33  1  0  0  0
M  CHG 1  38  -1
M  END
> <minimizedAffinity>
-8.58986

> <CNNscore>
0.4094643891

> <CNNaffinity>
6.9990510941

> <CNN_VS>
2.8658621311

> <CNNaffinity_variance>
0.1288952678

$$$$



 39 44  0  0  0  0  0  0  0  0999 V2000
    6.7252   -3.4350   22.7900 N   0  0  0  0  0  0  0  0  0  0  0  0
    7.0342   -2.0583   22.2810 C   0  0  0  0  0  0  0  0  0  0  0  0
    8.2123   -1.3049   22.8235 C   0  0  0  0  0  0  0  0  0  0  0  0
    9.3502   -0.4350   23.2688 C   0  0  0  0  0  0  0  0  0  0  0  0
   10.2879   -0.4521   24.0413 O   0  0  0  0  0  0  0  0  0  0  0  0
    9.2788    0.8512   22.5003 N   0  0  0  0  0  0  0  0  0  0  0  0
    8.0968    0.7761   21.5799 C   0  0  0  0  0  0  0  0  0  0  0  0
    7.4377   -0.5564   21.7796 C   0  0  0  0  0  0  0  0  0  0  0  0
    9.0816   -1.9283   23.8751 C   0  0  0  0  0  0  0  0  0  0  0  0
   10.2597   -1.1750   24.4177 C   0  0  0  0  0  0  0  0  0  0  0  0
   11.1289   -1.7983   25.4693 C   0  0  0  0  0  0  0  0  0  0  0  0
   12.3071   -1.0450   26.0118 Cl  0  0  0  0  0  0  0  0  0  0  0  0
   10.8199   -3.1751   25.9783 C   0  0  0  0  0  0  0  0  0  0  0  0
    9.6418   -3.9284   25.4358 C   0  0  0  0  0  0  0  0  0  0  0  0
    8.7726   -3.3050   24.3842 C   0  0  0  0  0  0  0  0  0  0  0  0
    7.5944   -4.0584   23.8416 C   0  0  0  0  0  0  0  0  0  0  0  0
    7.2854   -5.4351   24.3507 O   0  0  0  0  0  0  0  0  0  0  0  0
   10.2236    2.0091   22.6295 C   0  0  0  0  0  0  0  0  0  0  0  0
   11.7026    1.7866   22.5157 C   0  0  0  0  0  0  0  0  0  0  0  0
   12.6474    2.9445   22.6448 N   0  0  0  0  0  0  0  0  0  0  0  0
   12.1131    4.3248   22.8878 C   0  0  0  0  0  0  0  0  0  0  0  0
   10.6341    4.5473   23.0016 C   0  0  0  0  0  0  0  0  0  0  0  0
   10.0998    5.9278   23.2446 C   0  0  0  0  0  0  0  0  0  0  0  0
    8.6207    6.1502   23.3583 C   0  0  0  0  0  0  0  0  0  0  0  0
    7.6760    4.9923   23.2292 C   0  0  0  0  0  0  0  0  0  0  0  0
    8.2102    3.6119   22.9862 C   0  0  0  0  0  0  0  0  0  0  0  0
    9.6893    3.3895   22.8724 C   0  0  0  0  0  0  0  0  0  0  0  0
    5.5470   -4.1884   22.2474 C   0  0  0  0  0  0  0  0  0  0  0  0
    4.1722   -7.1423   24.5133 C   0  0  0  0  0  0  0  0  0  0  0  0
    4.4721   -5.7595   24.0155 N   0  0  0  0  0  0  0  0  0  0  0  0
    5.2471   -5.5713   22.7452 C   0  0  0  0  0  0  0  0  0  0  0  0
    5.7224   -6.7660   21.9726 O   0  0  0  0  0  0  0  0  0  0  0  0
    4.1601   -4.9753   24.5226 H   0  0  0  0  0  0  0  0  0  0  0  0
    6.2180   -1.0532   21.0616 C   0  0  0  0  0  0  0  0  0  0  0  0
    5.7436   -0.3584   19.8198 C   0  0  0  0  0  0  0  0  0  0  0  0
    4.5593    0.5567   19.7193 N   0  0  0  0  0  0  0  0  0  0  0  0
    4.4540    1.0240   18.2979 N   0  0  0  0  0  0  0  0  0  0  0  0
    5.5731    0.3978   17.5199 N   0  0  0  0  0  0  0  0  0  0  0  0
    6.3701   -0.4566   18.4605 N   0  0  0  0  0  0  0  0  0  0  0  0
 29 30  1  0  0  0
 30 31  1  0  0  0
 31 32  2  0  0  0
 31 28  1  0  0  0
 28  1  1  0  0  0
  1  2  1  0  0  0
  3  2  1  0  0  0
  3  4  1  0  0  0
  4  5  2  0  0  0
  4  6  1  0  0  0
  6 18  1  0  0  0
 18 19  2  0  0  0
 19 20  1  0  0  0
 20 21  2  0  0  0
 21 22  1  0  0  0
 22 23  2  0  0  0
 23 24  1  0  0  0
 24 25  2  0  0  0
 25 26  1  0  0  0
 26 27  2  0  0  0
  6  7  1  0  0  0
  7  8  1  0  0  0
  8 34  1  0  0  0
 34 35  1  0  0  0
 35 36  1  0  0  0
 36 37  2  0  0  0
 37 38  1  0  0  0
 38 39  1  0  0  0
  3  9  1  0  0  0
  9 10  2  0  0  0
 10 11  1  0  0  0
 11 12  1  0  0  0
 11 13  2  0  0  0
 13 14  1  0  0  0
 14 15  2  0  0  0
 15 16  1  0  0  0
 16 17  2  0  0  0
 16  1  1  0  0  0
  8  3  1  0  0  0
 39 35  2  0  0  0
 15  9  1  0  0  0
 27 18  1  0  0  0
 27 22  1  0  0  0
 30 33  1  0  0  0
M  CHG 1  38  -1
M  END
> <minimizedAffinity>
-9.22374

> <CNNscore>
0.3563767076

> <CNNaffinity>
6.9481034279

> <CNN_VS>
2.4761421680

> <CNNaffinity_variance>
0.3096989393

$$$$



 39 44  0  0  0  0  0  0  0  0999 V2000
   10.6613    1.5067   22.7835 N   0  0  0  0  0  0  0  0  0  0  0  0
    9.2590    1.1254   23.1551 C   0  0  0  0  0  0  0  0  0  0  0  0
    9.0155   -0.0386   24.0692 C   0  0  0  0  0  0  0  0  0  0  0  0
    8.6188   -1.1721   24.9680 C   0  0  0  0  0  0  0  0  0  0  0  0
    9.1250   -2.0588   25.6266 O   0  0  0  0  0  0  0  0  0  0  0  0
    7.1218   -1.1874   25.0616 N   0  0  0  0  0  0  0  0  0  0  0  0
    6.5933   -0.0634   24.2206 C   0  0  0  0  0  0  0  0  0  0  0  0
    7.7637    0.6466   23.6073 C   0  0  0  0  0  0  0  0  0  0  0  0
   10.1744   -0.8214   24.6118 C   0  0  0  0  0  0  0  0  0  0  0  0
    9.9309   -1.9855   25.5259 C   0  0  0  0  0  0  0  0  0  0  0  0
   11.0898   -2.7682   26.0684 C   0  0  0  0  0  0  0  0  0  0  0  0
   10.8463   -3.9324   26.9825 Cl  0  0  0  0  0  0  0  0  0  0  0  0
   12.4921   -2.3869   25.6968 C   0  0  0  0  0  0  0  0  0  0  0  0
   12.7356   -1.2229   24.7827 C   0  0  0  0  0  0  0  0  0  0  0  0
   11.5767   -0.4401   24.2402 C   0  0  0  0  0  0  0  0  0  0  0  0
   11.8202    0.7240   23.3260 C   0  0  0  0  0  0  0  0  0  0  0  0
   13.2225    1.1053   22.9544 O   0  0  0  0  0  0  0  0  0  0  0  0
    6.2980   -2.1566   25.8566 C   0  0  0  0  0  0  0  0  0  0  0  0
    6.0646   -3.5445   25.3378 C   0  0  0  0  0  0  0  0  0  0  0  0
    5.2408   -4.5137   26.1328 N   0  0  0  0  0  0  0  0  0  0  0  0
    4.6503   -4.0949   27.4465 C   0  0  0  0  0  0  0  0  0  0  0  0
    4.8837   -2.7069   27.9653 C   0  0  0  0  0  0  0  0  0  0  0  0
    4.2931   -2.2881   29.2791 C   0  0  0  0  0  0  0  0  0  0  0  0
    4.5265   -0.9001   29.7978 C   0  0  0  0  0  0  0  0  0  0  0  0
    5.3504    0.0690   29.0028 C   0  0  0  0  0  0  0  0  0  0  0  0
    5.9408   -0.3498   27.6891 C   0  0  0  0  0  0  0  0  0  0  0  0
    5.7075   -1.7378   27.1703 C   0  0  0  0  0  0  0  0  0  0  0  0
   10.9048    2.6709   21.8694 C   0  0  0  0  0  0  0  0  0  0  0  0
   10.5145    6.3124   23.3979 C   0  0  0  0  0  0  0  0  0  0  0  0
   10.1653    4.9703   22.8264 N   0  0  0  0  0  0  0  0  0  0  0  0
   11.2539    4.0131   22.4409 C   0  0  0  0  0  0  0  0  0  0  0  0
   12.6918    4.3980   22.6269 O   0  0  0  0  0  0  0  0  0  0  0  0
    9.2217    4.7176   22.7043 H   0  0  0  0  0  0  0  0  0  0  0  0
    7.6944    1.8334   22.6926 C   0  0  0  0  0  0  0  0  0  0  0  0
    6.5262    1.9995   21.7666 C   0  0  0  0  0  0  0  0  0  0  0  0
    5.5951    3.1748   21.7238 N   0  0  0  0  0  0  0  0  0  0  0  0
    4.5774    2.9211   20.6515 N   0  0  0  0  0  0  0  0  0  0  0  0
    4.8795    1.5891   20.0315 N   0  0  0  0  0  0  0  0  0  0  0  0
    6.0839    1.0195   20.7207 N   0  0  0  0  0  0  0  0  0  0  0  0
 29 30  1  0  0  0
 30 31  1  0  0  0
 31 32  2  0  0  0
 31 28  1  0  0  0
 28  1  1  0  0  0
  1  2  1  0  0  0
  3  2  1  0  0  0
  3  4  1  0  0  0
  4  5  2  0  0  0
  4  6  1  0  0  0
  6 18  1  0  0  0
 18 19  2  0  0  0
 19 20  1  0  0  0
 20 21  2  0  0  0
 21 22  1  0  0  0
 22 23  2  0  0  0
 23 24  1  0  0  0
 24 25  2  0  0  0
 25 26  1  0  0  0
 26 27  2  0  0  0
  6  7  1  0  0  0
  7  8  1  0  0  0
  8 34  1  0  0  0
 34 35  1  0  0  0
 35 36  1  0  0  0
 36 37  2  0  0  0
 37 38  1  0  0  0
 38 39  1  0  0  0
  3  9  1  0  0  0
  9 10  2  0  0  0
 10 11  1  0  0  0
 11 12  1  0  0  0
 11 13  2  0  0  0
 13 14  1  0  0  0
 14 15  2  0  0  0
 15 16  1  0  0  0
 16 17  2  0  0  0
 16  1  1  0  0  0
  8  3  1  0  0  0
 39 35  2  0  0  0
 15  9  1  0  0  0
 27 18  1  0  0  0
 27 22  1  0  0  0
 30 33  1  0  0  0
M  CHG 1  38  -1
M  END
> <minimizedAffinity>
-7.97897

> <CNNscore>
0.2751420736

> <CNNaffinity>
6.8771829605

> <CNN_VS>
1.8922023773

> <CNNaffinity_variance>
0.2839750648

$$$$



 39 44  0  0  0  0  0  0  0  0999 V2000
    5.4569    1.7699   22.0303 N   0  0  0  0  0  0  0  0  0  0  0  0
    6.2702    0.5662   22.4040 C   0  0  0  0  0  0  0  0  0  0  0  0
    7.7021    0.7282   22.8201 C   0  0  0  0  0  0  0  0  0  0  0  0
    9.1380    0.7343   23.2539 C   0  0  0  0  0  0  0  0  0  0  0  0
   10.0489    1.5150   23.4466 O   0  0  0  0  0  0  0  0  0  0  0  0
    9.5456   -0.6831   23.5275 N   0  0  0  0  0  0  0  0  0  0  0  0
    8.3616   -1.5652   23.2629 C   0  0  0  0  0  0  0  0  0  0  0  0
    7.2223   -0.6929   22.8257 C   0  0  0  0  0  0  0  0  0  0  0  0
    8.3209    2.0940   22.8624 C   0  0  0  0  0  0  0  0  0  0  0  0
    9.7529    2.2560   23.2785 C   0  0  0  0  0  0  0  0  0  0  0  0
   10.3716    3.6218   23.3208 C   0  0  0  0  0  0  0  0  0  0  0  0
   11.8037    3.7839   23.7369 Cl  0  0  0  0  0  0  0  0  0  0  0  0
    9.5584    4.8255   22.9471 C   0  0  0  0  0  0  0  0  0  0  0  0
    8.1264    4.6635   22.5311 C   0  0  0  0  0  0  0  0  0  0  0  0
    7.5077    3.2978   22.4887 C   0  0  0  0  0  0  0  0  0  0  0  0
    6.0757    3.1357   22.0726 C   0  0  0  0  0  0  0  0  0  0  0  0
    5.2624    4.3394   21.6989 O   0  0  0  0  0  0  0  0  0  0  0  0
   10.8995   -1.1385   23.9854 C   0  0  0  0  0  0  0  0  0  0  0  0
   12.1344   -0.6033   23.3232 C   0  0  0  0  0  0  0  0  0  0  0  0
   13.4883   -1.0587   23.7811 N   0  0  0  0  0  0  0  0  0  0  0  0
   13.6072   -2.0491   24.9013 C   0  0  0  0  0  0  0  0  0  0  0  0
   12.3723   -2.5842   25.5635 C   0  0  0  0  0  0  0  0  0  0  0  0
   12.4912   -3.5747   26.6838 C   0  0  0  0  0  0  0  0  0  0  0  0
   11.2562   -4.1098   27.3460 C   0  0  0  0  0  0  0  0  0  0  0  0
    9.9024   -3.6545   26.8881 C   0  0  0  0  0  0  0  0  0  0  0  0
    9.7834   -2.6640   25.7679 C   0  0  0  0  0  0  0  0  0  0  0  0
   11.0184   -2.1289   25.1056 C   0  0  0  0  0  0  0  0  0  0  0  0
    4.0249    1.6079   21.6142 C   0  0  0  0  0  0  0  0  0  0  0  0
    4.3858    1.1584   17.6877 C   0  0  0  0  0  0  0  0  0  0  0  0
    4.7390    1.2427   19.1431 N   0  0  0  0  0  0  0  0  0  0  0  0
    3.6717    1.5236   20.1588 C   0  0  0  0  0  0  0  0  0  0  0  0
    2.2510    1.7204   19.7192 O   0  0  0  0  0  0  0  0  0  0  0  0
    5.6714    1.1135   19.4316 H   0  0  0  0  0  0  0  0  0  0  0  0
    5.8449   -1.1599   22.4585 C   0  0  0  0  0  0  0  0  0  0  0  0
    5.5170   -2.6233   22.4854 C   0  0  0  0  0  0  0  0  0  0  0  0
    5.1767   -3.4726   21.2968 N   0  0  0  0  0  0  0  0  0  0  0  0
    4.9212   -4.8686   21.7824 N   0  0  0  0  0  0  0  0  0  0  0  0
    5.1037   -4.8821   23.2712 N   0  0  0  0  0  0  0  0  0  0  0  0
    5.4719   -3.4945   23.7056 N   0  0  0  0  0  0  0  0  0  0  0  0
 29 30  1  0  0  0
 30 31  1  0  0  0
 31 32  2  0  0  0
 31 28  1  0  0  0
 28  1  1  0  0  0
  1  2  1  0  0  0
  3  2  1  0  0  0
  3  4  1  0  0  0
  4  5  2  0  0  0
  4  6  1  0  0  0
  6 18  1  0  0  0
 18 19  2  0  0  0
 19 20  1  0  0  0
 20 21  2  0  0  0
 21 22  1  0  0  0
 22 23  2  0  0  0
 23 24  1  0  0  0
 24 25  2  0  0  0
 25 26  1  0  0  0
 26 27  2  0  0  0
  6  7  1  0  0  0
  7  8  1  0  0  0
  8 34  1  0  0  0
 34 35  1  0  0  0
 35 36  1  0  0  0
 36 37  2  0  0  0
 37 38  1  0  0  0
 38 39  1  0  0  0
  3  9  1  0  0  0
  9 10  2  0  0  0
 10 11  1  0  0  0
 11 12  1  0  0  0
 11 13  2  0  0  0
 13 14  1  0  0  0
 14 15  2  0  0  0
 15 16  1  0  0  0
 16 17  2  0  0  0
 16  1  1  0  0  0
  8  3  1  0  0  0
 39 35  2  0  0  0
 15  9  1  0  0  0
 27 18  1  0  0  0
 27 22  1  0  0  0
 30 33  1  0  0  0
M  CHG 1  38  -1
M  END
> <minimizedAffinity>
-7.56669

> <CNNscore>
0.2642419636

> <CNNaffinity>
6.9199171066

> <CNN_VS>
1.8285324574

> <CNNaffinity_variance>
0.1663840562

$$$$



 39 44  0  0  0  0  0  0  0  0999 V2000
   10.0609    0.5086   22.6824 N   0  0  0  0  0  0  0  0  0  0  0  0
    8.8983   -0.4259   22.5235 C   0  0  0  0  0  0  0  0  0  0  0  0
    8.8368   -1.6901   23.3284 C   0  0  0  0  0  0  0  0  0  0  0  0
    8.6391   -2.9840   24.0612 C   0  0  0  0  0  0  0  0  0  0  0  0
    9.1897   -3.6748   24.8953 O   0  0  0  0  0  0  0  0  0  0  0  0
    7.3480   -3.5884   23.5945 N   0  0  0  0  0  0  0  0  0  0  0  0
    6.7478   -2.6681   22.5733 C   0  0  0  0  0  0  0  0  0  0  0  0
    7.6679   -1.4949   22.4089 C   0  0  0  0  0  0  0  0  0  0  0  0
    9.9379   -2.0199   24.2923 C   0  0  0  0  0  0  0  0  0  0  0  0
    9.8764   -3.2842   25.0972 C   0  0  0  0  0  0  0  0  0  0  0  0
   10.9775   -3.6139   26.0609 C   0  0  0  0  0  0  0  0  0  0  0  0
   10.9161   -4.8782   26.8659 Cl  0  0  0  0  0  0  0  0  0  0  0  0
   12.1400   -2.6794   26.2198 C   0  0  0  0  0  0  0  0  0  0  0  0
   12.2015   -1.4152   25.4149 C   0  0  0  0  0  0  0  0  0  0  0  0
   11.1005   -1.0854   24.4511 C   0  0  0  0  0  0  0  0  0  0  0  0
   11.1619    0.1788   23.6462 C   0  0  0  0  0  0  0  0  0  0  0  0
   12.3244    1.1133   23.8051 O   0  0  0  0  0  0  0  0  0  0  0  0
    6.7603   -4.8853   24.0662 C   0  0  0  0  0  0  0  0  0  0  0  0
    7.2501   -6.1827   23.4945 C   0  0  0  0  0  0  0  0  0  0  0  0
    6.6625   -7.4796   23.9662 N   0  0  0  0  0  0  0  0  0  0  0  0
    5.5849   -7.4792   25.0097 C   0  0  0  0  0  0  0  0  0  0  0  0
    5.0951   -6.1818   25.5814 C   0  0  0  0  0  0  0  0  0  0  0  0
    4.0175   -6.1815   26.6250 C   0  0  0  0  0  0  0  0  0  0  0  0
    3.5277   -4.8841   27.1967 C   0  0  0  0  0  0  0  0  0  0  0  0
    4.1154   -3.5871   26.7250 C   0  0  0  0  0  0  0  0  0  0  0  0
    5.1929   -3.5875   25.6815 C   0  0  0  0  0  0  0  0  0  0  0  0
    5.6827   -4.8849   25.1097 C   0  0  0  0  0  0  0  0  0  0  0  0
   10.1223    1.7729   21.8774 C   0  0  0  0  0  0  0  0  0  0  0  0
   10.5870    5.5625   22.9602 C   0  0  0  0  0  0  0  0  0  0  0  0
   10.8254    4.2386   22.2967 N   0  0  0  0  0  0  0  0  0  0  0  0
    9.8839    3.0968   22.5410 C   0  0  0  0  0  0  0  0  0  0  0  0
    8.7038    3.2789   23.4490 O   0  0  0  0  0  0  0  0  0  0  0  0
   11.5999    4.1191   21.7007 H   0  0  0  0  0  0  0  0  0  0  0  0
    7.4563   -0.3309   21.4868 C   0  0  0  0  0  0  0  0  0  0  0  0
    6.0657    0.1421   21.1829 C   0  0  0  0  0  0  0  0  0  0  0  0
    5.0750    0.6658   22.1800 N   0  0  0  0  0  0  0  0  0  0  0  0
    3.8186    1.0218   21.4419 N   0  0  0  0  0  0  0  0  0  0  0  0
    4.0328    0.7181   19.9887 N   0  0  0  0  0  0  0  0  0  0  0  0
    5.4216    0.1744   19.8286 N   0  0  0  0  0  0  0  0  0  0  0  0
 29 30  1  0  0  0
 30 31  1  0  0  0
 31 32  2  0  0  0
 31 28  1  0  0  0
 28  1  1  0  0  0
  1  2  1  0  0  0
  3  2  1  0  0  0
  3  4  1  0  0  0
  4  5  2  0  0  0
  4  6  1  0  0  0
  6 18  1  0  0  0
 18 19  2  0  0  0
 19 20  1  0  0  0
 20 21  2  0  0  0
 21 22  1  0  0  0
 22 23  2  0  0  0
 23 24  1  0  0  0
 24 25  2  0  0  0
 25 26  1  0  0  0
 26 27  2  0  0  0
  6  7  1  0  0  0
  7  8  1  0  0  0
  8 34  1  0  0  0
 34 35  1  0  0  0
 35 36  1  0  0  0
 36 37  2  0  0  0
 37 38  1  0  0  0
 38 39  1  0  0  0
  3  9  1  0  0  0
  9 10  2  0  0  0
 10 11  1  0  0  0
 11 12  1  0  0  0
 11 13  2  0  0  0
 13 14  1  0  0  0
 14 15  2  0  0  0
 15 16  1  0  0  0
 16 17  2  0  0  0
 16  1  1  0  0  0
  8  3  1  0  0  0
 39 35  2  0  0  0
 15  9  1  0  0  0
 27 18  1  0  0  0
 27 22  1  0  0  0
 30 33  1  0  0  0
M  CHG 1  38  -1
M  END
> <minimizedAffinity>
-8.61292

> <CNNscore>
0.2432862073

> <CNNaffinity>
6.9093580246

> <CNN_VS>
1.6809514761

> <CNNaffinity_variance>
0.2419078052

$$$$



 39 44  0  0  0  0  0  0  0  0999 V2000
   10.4279    0.6169   23.3202 N   0  0  0  0  0  0  0  0  0  0  0  0
    9.0404    0.1897   23.6975 C   0  0  0  0  0  0  0  0  0  0  0  0
    8.8400   -0.9495   24.6524 C   0  0  0  0  0  0  0  0  0  0  0  0
    8.4852   -2.0653   25.5900 C   0  0  0  0  0  0  0  0  0  0  0  0
    9.0239   -2.9049   26.2838 O   0  0  0  0  0  0  0  0  0  0  0  0
    6.9896   -2.1413   25.6754 N   0  0  0  0  0  0  0  0  0  0  0  0
    6.4199   -1.0725   24.7905 C   0  0  0  0  0  0  0  0  0  0  0  0
    7.5635   -0.3359   24.1583 C   0  0  0  0  0  0  0  0  0  0  0  0
   10.0271   -1.6616   25.2302 C   0  0  0  0  0  0  0  0  0  0  0  0
    9.8266   -2.8009   26.1851 C   0  0  0  0  0  0  0  0  0  0  0  0
   11.0137   -3.5129   26.7628 C   0  0  0  0  0  0  0  0  0  0  0  0
   10.8133   -4.6522   27.7178 Cl  0  0  0  0  0  0  0  0  0  0  0  0
   12.4012   -3.0857   26.3856 C   0  0  0  0  0  0  0  0  0  0  0  0
   12.6017   -1.9465   25.4306 C   0  0  0  0  0  0  0  0  0  0  0  0
   11.4146   -1.2344   24.8529 C   0  0  0  0  0  0  0  0  0  0  0  0
   11.6150   -0.0952   23.8979 C   0  0  0  0  0  0  0  0  0  0  0  0
   13.0025    0.3320   23.5207 O   0  0  0  0  0  0  0  0  0  0  0  0
    6.2019   -3.1152   26.5007 C   0  0  0  0  0  0  0  0  0  0  0  0
    6.0116   -2.8725   27.9687 C   0  0  0  0  0  0  0  0  0  0  0  0
    5.2240   -3.8463   28.7940 N   0  0  0  0  0  0  0  0  0  0  0  0
    4.6266   -5.0629   28.1514 C   0  0  0  0  0  0  0  0  0  0  0  0
    4.8169   -5.3057   26.6834 C   0  0  0  0  0  0  0  0  0  0  0  0
    4.2195   -6.5224   26.0408 C   0  0  0  0  0  0  0  0  0  0  0  0
    4.4099   -6.7650   24.5728 C   0  0  0  0  0  0  0  0  0  0  0  0
    5.1975   -5.7911   23.7475 C   0  0  0  0  0  0  0  0  0  0  0  0
    5.7949   -4.5745   24.3901 C   0  0  0  0  0  0  0  0  0  0  0  0
    5.6046   -4.3318   25.8581 C   0  0  0  0  0  0  0  0  0  0  0  0
   10.6283    1.7562   22.3652 C   0  0  0  0  0  0  0  0  0  0  0  0
    9.4356    5.4012   23.3855 C   0  0  0  0  0  0  0  0  0  0  0  0
    9.4056    3.9911   22.8749 N   0  0  0  0  0  0  0  0  0  0  0  0
   10.6584    3.1663   22.8758 C   0  0  0  0  0  0  0  0  0  0  0  0
   11.9414    3.7516   23.3872 O   0  0  0  0  0  0  0  0  0  0  0  0
    8.5635    3.6070   22.5393 H   0  0  0  0  0  0  0  0  0  0  0  0
    7.4505    0.8126   23.2001 C   0  0  0  0  0  0  0  0  0  0  0  0
    6.9164    0.5858   21.8170 C   0  0  0  0  0  0  0  0  0  0  0  0
    5.7612   -0.2989   21.4521 N   0  0  0  0  0  0  0  0  0  0  0  0
    5.5745   -0.2277   19.9655 N   0  0  0  0  0  0  0  0  0  0  0  0
    6.6141    0.7009   19.4116 N   0  0  0  0  0  0  0  0  0  0  0  0
    7.4434    1.2036   20.5559 N   0  0  0  0  0  0  0  0  0  0  0  0
 29 30  1  0  0  0
 30 31  1  0  0  0
 31 32  2  0  0  0
 31 28  1  0  0  0
 28  1  1  0  0  0
  1  2  1  0  0  0
  3  2  1  0  0  0
  3  4  1  0  0  0
  4  5  2  0  0  0
  4  6  1  0  0  0
  6 18  1  0  0  0
 18 19  2  0  0  0
 19 20  1  0  0  0
 20 21  2  0  0  0
 21 22  1  0  0  0
 22 23  2  0  0  0
 23 24  1  0  0  0
 24 25  2  0  0  0
 25 26  1  0  0  0
 26 27  2  0  0  0
  6  7  1  0  0  0
  7  8  1  0  0  0
  8 34  1  0  0  0
 34 35  1  0  0  0
 35 36  1  0  0  0
 36 37  2  0  0  0
 37 38  1  0  0  0
 38 39  1  0  0  0
  3  9  1  0  0  0
  9 10  2  0  0  0
 10 11  1  0  0  0
 11 12  1  0  0  0
 11 13  2  0  0  0
 13 14  1  0  0  0
 14 15  2  0  0  0
 15 16  1  0  0  0
 16 17  2  0  0  0
 16  1  1  0  0  0
  8  3  1  0  0  0
 39 35  2  0  0  0
 15  9  1  0  0  0
 27 18  1  0  0  0
 27 22  1  0  0  0
 30 33  1  0  0  0
M  CHG 1  38  -1
M  END
> <minimizedAffinity>
-8.81882

> <CNNscore>
0.2282731086

> <CNNaffinity>
6.8257927895

> <CNN_VS>
1.5581449270

> <CNNaffinity_variance>
0.2743046284

$$$$
