


 39 44  0  0  0  0  0  0  0  0999 V2000
   -3.2299    1.0513  -23.6800 N   0  0  0  0  0  0  0  0  0  0  0  0
   -4.5322    0.9297  -22.9457 C   0  0  0  0  0  0  0  0  0  0  0  0
   -5.8262    1.1487  -23.6721 C   0  0  0  0  0  0  0  0  0  0  0  0
   -7.1921    1.3386  -24.2620 C   0  0  0  0  0  0  0  0  0  0  0  0
   -7.7184    1.6066  -25.3239 O   0  0  0  0  0  0  0  0  0  0  0  0
   -8.2013    1.1231  -23.1734 N   0  0  0  0  0  0  0  0  0  0  0  0
   -7.4590    0.7999  -21.9106 C   0  0  0  0  0  0  0  0  0  0  0  0
   -5.9911    0.8158  -22.2188 C   0  0  0  0  0  0  0  0  0  0  0  0
   -5.8179    1.4894  -25.1329 C   0  0  0  0  0  0  0  0  0  0  0  0
   -7.1118    1.7084  -25.8593 C   0  0  0  0  0  0  0  0  0  0  0  0
   -7.1035    2.0490  -27.3200 C   0  0  0  0  0  0  0  0  0  0  0  0
   -8.3975    2.2681  -28.0465 Cl  0  0  0  0  0  0  0  0  0  0  0  0
   -5.8012    2.1707  -28.0544 C   0  0  0  0  0  0  0  0  0  0  0  0
   -4.5073    1.9517  -27.3280 C   0  0  0  0  0  0  0  0  0  0  0  0
   -4.5156    1.6110  -25.8673 C   0  0  0  0  0  0  0  0  0  0  0  0
   -3.2216    1.3920  -25.1408 C   0  0  0  0  0  0  0  0  0  0  0  0
   -1.9193    1.5136  -25.8751 O   0  0  0  0  0  0  0  0  0  0  0  0
   -9.6912    1.2146  -23.3215 C   0  0  0  0  0  0  0  0  0  0  0  0
  -10.3325    2.5293  -23.6537 C   0  0  0  0  0  0  0  0  0  0  0  0
  -11.8223    2.6208  -23.8019 N   0  0  0  0  0  0  0  0  0  0  0  0
  -12.6709    1.3977  -23.6179 C   0  0  0  0  0  0  0  0  0  0  0  0
  -12.0295    0.0830  -23.2857 C   0  0  0  0  0  0  0  0  0  0  0  0
  -12.8781   -1.1402  -23.1017 C   0  0  0  0  0  0  0  0  0  0  0  0
  -12.2367   -2.4549  -22.7695 C   0  0  0  0  0  0  0  0  0  0  0  0
  -10.7469   -2.5464  -22.6214 C   0  0  0  0  0  0  0  0  0  0  0  0
   -9.8983   -1.3233  -22.8054 C   0  0  0  0  0  0  0  0  0  0  0  0
  -10.5397   -0.0086  -23.1375 C   0  0  0  0  0  0  0  0  0  0  0  0
   -1.9359    0.8323  -22.9536 C   0  0  0  0  0  0  0  0  0  0  0  0
   -1.3772    4.1550  -20.8567 C   0  0  0  0  0  0  0  0  0  0  0  0
   -1.7794    3.2309  -21.9676 N   0  0  0  0  0  0  0  0  0  0  0  0
   -1.5338    1.7564  -21.8426 C   0  0  0  0  0  0  0  0  0  0  0  0
   -0.8861    1.2061  -20.6066 O   0  0  0  0  0  0  0  0  0  0  0  0
   -2.2045    3.5920  -22.7789 H   0  0  0  0  0  0  0  0  0  0  0  0
   -4.8828    0.5460  -21.2447 C   0  0  0  0  0  0  0  0  0  0  0  0
   -5.1698   -0.1805  -19.9643 C   0  0  0  0  0  0  0  0  0  0  0  0
   -5.7063   -1.5760  -19.8436 N   0  0  0  0  0  0  0  0  0  0  0  0
   -5.8389   -1.8971  -18.3844 N   0  0  0  0  0  0  0  0  0  0  0  0
   -5.3844   -0.7000  -17.6032 N   0  0  0  0  0  0  0  0  0  0  0  0
   -4.9709    0.3609  -18.5796 N   0  0  0  0  0  0  0  0  0  0  0  0
 29 30  1  0  0  0
 30 31  1  0  0  0
 31 32  2  0  0  0
 31 28  1  0  0  0
 28  1  1  0  0  0
  1  2  1  0  0  0
  3  2  1  0  0  0
  3  4  1  0  0  0
  4  5  2  0  0  0
  4  6  1  0  0  0
  6 18  1  0  0  0
 18 19  2  0  0  0
 19 20  1  0  0  0
 20 21  2  0  0  0
 21 22  1  0  0  0
 22 23  2  0  0  0
 23 24  1  0  0  0
 24 25  2  0  0  0
 25 26  1  0  0  0
 26 27  2  0  0  0
  6  7  1  0  0  0
  7  8  1  0  0  0
  8 34  1  0  0  0
 34 35  1  0  0  0
 35 36  1  0  0  0
 36 37  2  0  0  0
 37 38  1  0  0  0
 38 39  1  0  0  0
  3  9  1  0  0  0
  9 10  2  0  0  0
 10 11  1  0  0  0
 11 12  1  0  0  0
 11 13  2  0  0  0
 13 14  1  0  0  0
 14 15  2  0  0  0
 15 16  1  0  0  0
 16 17  2  0  0  0
 16  1  1  0  0  0
  8  3  1  0  0  0
 39 35  2  0  0  0
 15  9  1  0  0  0
 27 18  1  0  0  0
 27 22  1  0  0  0
 30 33  1  0  0  0
M  CHG 1  38  -1
M  END
> <minimizedAffinity>
-7.54810

> <CNNscore>
0.2593889832

> <CNNaffinity>
6.6200628281

> <CNN_VS>
1.7171713114

> <CNNaffinity_variance>
0.0726478547

$$$$



 39 44  0  0  0  0  0  0  0  0999 V2000
  -11.5933    3.9029  -24.0265 N   0  0  0  0  0  0  0  0  0  0  0  0
  -10.2112    3.3306  -23.9158 C   0  0  0  0  0  0  0  0  0  0  0  0
  -10.0248    1.8652  -23.6555 C   0  0  0  0  0  0  0  0  0  0  0  0
   -9.6839    0.4272  -23.3990 C   0  0  0  0  0  0  0  0  0  0  0  0
  -10.2328   -0.6409  -23.2140 O   0  0  0  0  0  0  0  0  0  0  0  0
   -8.1893    0.3037  -23.3669 N   0  0  0  0  0  0  0  0  0  0  0  0
   -7.6065    1.6654  -23.6035 C   0  0  0  0  0  0  0  0  0  0  0  0
   -8.7409    2.6305  -23.7819 C   0  0  0  0  0  0  0  0  0  0  0  0
  -11.2206    0.9720  -23.5059 C   0  0  0  0  0  0  0  0  0  0  0  0
  -11.0342   -0.4934  -23.2456 C   0  0  0  0  0  0  0  0  0  0  0  0
  -12.2300   -1.3866  -23.0959 C   0  0  0  0  0  0  0  0  0  0  0  0
  -12.0436   -2.8521  -22.8356 Cl  0  0  0  0  0  0  0  0  0  0  0  0
  -13.6121   -0.8143  -23.2066 C   0  0  0  0  0  0  0  0  0  0  0  0
  -13.7985    0.6511  -23.4669 C   0  0  0  0  0  0  0  0  0  0  0  0
  -12.6027    1.5442  -23.6165 C   0  0  0  0  0  0  0  0  0  0  0  0
  -12.7891    3.0097  -23.8768 C   0  0  0  0  0  0  0  0  0  0  0  0
  -14.1712    3.5820  -23.9875 O   0  0  0  0  0  0  0  0  0  0  0  0
   -7.4137   -0.9597  -23.1382 C   0  0  0  0  0  0  0  0  0  0  0  0
   -7.1919   -1.9189  -24.2700 C   0  0  0  0  0  0  0  0  0  0  0  0
   -6.4163   -3.1823  -24.0413 N   0  0  0  0  0  0  0  0  0  0  0  0
   -5.8626   -3.4865  -22.6809 C   0  0  0  0  0  0  0  0  0  0  0  0
   -6.0844   -2.5274  -21.5491 C   0  0  0  0  0  0  0  0  0  0  0  0
   -5.5306   -2.8317  -20.1886 C   0  0  0  0  0  0  0  0  0  0  0  0
   -5.7525   -1.8725  -19.0569 C   0  0  0  0  0  0  0  0  0  0  0  0
   -6.5280   -0.6091  -19.2856 C   0  0  0  0  0  0  0  0  0  0  0  0
   -7.0818   -0.3048  -20.6460 C   0  0  0  0  0  0  0  0  0  0  0  0
   -6.8600   -1.2640  -21.7778 C   0  0  0  0  0  0  0  0  0  0  0  0
  -11.7796    5.3684  -24.2868 C   0  0  0  0  0  0  0  0  0  0  0  0
  -13.9787    6.3402  -27.4443 C   0  0  0  0  0  0  0  0  0  0  0  0
  -13.5998    5.8643  -26.0732 N   0  0  0  0  0  0  0  0  0  0  0  0
  -12.1586    5.8443  -25.6579 C   0  0  0  0  0  0  0  0  0  0  0  0
  -11.0962    6.3002  -26.6137 O   0  0  0  0  0  0  0  0  0  0  0  0
  -14.2970    5.5650  -25.4458 H   0  0  0  0  0  0  0  0  0  0  0  0
   -8.6137    4.1024  -24.0412 C   0  0  0  0  0  0  0  0  0  0  0  0
   -7.5037    4.8833  -23.4027 C   0  0  0  0  0  0  0  0  0  0  0  0
   -7.6673    6.0278  -22.4470 N   0  0  0  0  0  0  0  0  0  0  0  0
   -6.2999    6.5088  -22.0613 N   0  0  0  0  0  0  0  0  0  0  0  0
   -5.2911    5.6615  -22.7786 N   0  0  0  0  0  0  0  0  0  0  0  0
   -6.0351    4.6570  -23.6076 N   0  0  0  0  0  0  0  0  0  0  0  0
 29 30  1  0  0  0
 30 31  1  0  0  0
 31 32  2  0  0  0
 31 28  1  0  0  0
 28  1  1  0  0  0
  1  2  1  0  0  0
  3  2  1  0  0  0
  3  4  1  0  0  0
  4  5  2  0  0  0
  4  6  1  0  0  0
  6 18  1  0  0  0
 18 19  2  0  0  0
 19 20  1  0  0  0
 20 21  2  0  0  0
 21 22  1  0  0  0
 22 23  2  0  0  0
 23 24  1  0  0  0
 24 25  2  0  0  0
 25 26  1  0  0  0
 26 27  2  0  0  0
  6  7  1  0  0  0
  7  8  1  0  0  0
  8 34  1  0  0  0
 34 35  1  0  0  0
 35 36  1  0  0  0
 36 37  2  0  0  0
 37 38  1  0  0  0
 38 39  1  0  0  0
  3  9  1  0  0  0
  9 10  2  0  0  0
 10 11  1  0  0  0
 11 12  1  0  0  0
 11 13  2  0  0  0
 13 14  1  0  0  0
 14 15  2  0  0  0
 15 16  1  0  0  0
 16 17  2  0  0  0
 16  1  1  0  0  0
  8  3  1  0  0  0
 39 35  2  0  0  0
 15  9  1  0  0  0
 27 18  1  0  0  0
 27 22  1  0  0  0
 30 33  1  0  0  0
M  CHG 1  38  -1
M  END
> <minimizedAffinity>
-8.19058

> <CNNscore>
0.2489490807

> <CNNaffinity>
6.6483016014

> <CNN_VS>
1.6550885439

> <CNNaffinity_variance>
0.1981822848

$$$$



 39 44  0  0  0  0  0  0  0  0999 V2000
   -7.6077   -4.6302  -22.8616 N   0  0  0  0  0  0  0  0  0  0  0  0
   -8.7121   -3.7576  -23.3803 C   0  0  0  0  0  0  0  0  0  0  0  0
   -8.6755   -2.2778  -23.1377 C   0  0  0  0  0  0  0  0  0  0  0  0
   -8.7747   -0.7901  -22.9737 C   0  0  0  0  0  0  0  0  0  0  0  0
   -8.1630    0.1343  -22.4760 O   0  0  0  0  0  0  0  0  0  0  0  0
  -10.0351   -0.3326  -23.6461 N   0  0  0  0  0  0  0  0  0  0  0  0
  -10.7149   -1.5375  -24.2257 C   0  0  0  0  0  0  0  0  0  0  0  0
   -9.8747   -2.7397  -23.9115 C   0  0  0  0  0  0  0  0  0  0  0  0
   -7.5346   -1.6706  -22.3764 C   0  0  0  0  0  0  0  0  0  0  0  0
   -7.4980   -0.1908  -22.1338 C   0  0  0  0  0  0  0  0  0  0  0  0
   -6.3571    0.4164  -21.3725 C   0  0  0  0  0  0  0  0  0  0  0  0
   -6.3205    1.8962  -21.1299 Cl  0  0  0  0  0  0  0  0  0  0  0  0
   -5.2527   -0.4562  -20.8538 C   0  0  0  0  0  0  0  0  0  0  0  0
   -5.2893   -1.9359  -21.0964 C   0  0  0  0  0  0  0  0  0  0  0  0
   -6.4302   -2.5431  -21.8577 C   0  0  0  0  0  0  0  0  0  0  0  0
   -6.4668   -4.0230  -22.1003 C   0  0  0  0  0  0  0  0  0  0  0  0
   -5.3625   -4.8956  -21.5817 O   0  0  0  0  0  0  0  0  0  0  0  0
  -10.5289    1.0816  -23.7250 C   0  0  0  0  0  0  0  0  0  0  0  0
  -11.6582    1.5318  -22.8463 C   0  0  0  0  0  0  0  0  0  0  0  0
  -12.1520    2.9460  -22.9252 N   0  0  0  0  0  0  0  0  0  0  0  0
  -11.5165    3.9100  -23.8828 C   0  0  0  0  0  0  0  0  0  0  0  0
  -10.3872    3.4597  -24.7615 C   0  0  0  0  0  0  0  0  0  0  0  0
   -9.7517    4.4237  -25.7191 C   0  0  0  0  0  0  0  0  0  0  0  0
   -8.6224    3.9734  -26.5977 C   0  0  0  0  0  0  0  0  0  0  0  0
   -8.1286    2.5592  -26.5188 C   0  0  0  0  0  0  0  0  0  0  0  0
   -8.7641    1.5953  -25.5612 C   0  0  0  0  0  0  0  0  0  0  0  0
   -9.8934    2.0455  -24.6825 C   0  0  0  0  0  0  0  0  0  0  0  0
   -7.6444   -6.1100  -23.1043 C   0  0  0  0  0  0  0  0  0  0  0  0
   -4.4830   -7.9224  -24.6762 C   0  0  0  0  0  0  0  0  0  0  0  0
   -5.4074   -7.3044  -23.6694 N   0  0  0  0  0  0  0  0  0  0  0  0
   -6.7199   -6.7280  -24.1110 C   0  0  0  0  0  0  0  0  0  0  0  0
   -7.1081   -6.7696  -25.5594 O   0  0  0  0  0  0  0  0  0  0  0  0
   -5.1527   -7.2771  -22.7189 H   0  0  0  0  0  0  0  0  0  0  0  0
  -10.1800   -4.1553  -24.3024 C   0  0  0  0  0  0  0  0  0  0  0  0
   -9.9956   -4.5973  -25.7239 C   0  0  0  0  0  0  0  0  0  0  0  0
  -10.2433   -5.9772  -26.2573 N   0  0  0  0  0  0  0  0  0  0  0  0
   -9.9320   -5.9697  -27.7246 N   0  0  0  0  0  0  0  0  0  0  0  0
   -9.4919   -4.5852  -28.0980 N   0  0  0  0  0  0  0  0  0  0  0  0
   -9.5312   -3.7371  -26.8615 N   0  0  0  0  0  0  0  0  0  0  0  0
 29 30  1  0  0  0
 30 31  1  0  0  0
 31 32  2  0  0  0
 31 28  1  0  0  0
 28  1  1  0  0  0
  1  2  1  0  0  0
  3  2  1  0  0  0
  3  4  1  0  0  0
  4  5  2  0  0  0
  4  6  1  0  0  0
  6 18  1  0  0  0
 18 19  2  0  0  0
 19 20  1  0  0  0
 20 21  2  0  0  0
 21 22  1  0  0  0
 22 23  2  0  0  0
 23 24  1  0  0  0
 24 25  2  0  0  0
 25 26  1  0  0  0
 26 27  2  0  0  0
  6  7  1  0  0  0
  7  8  1  0  0  0
  8 34  1  0  0  0
 34 35  1  0  0  0
 35 36  1  0  0  0
 36 37  2  0  0  0
 37 38  1  0  0  0
 38 39  1  0  0  0
  3  9  1  0  0  0
  9 10  2  0  0  0
 10 11  1  0  0  0
 11 12  1  0  0  0
 11 13  2  0  0  0
 13 14  1  0  0  0
 14 15  2  0  0  0
 15 16  1  0  0  0
 16 17  2  0  0  0
 16  1  1  0  0  0
  8  3  1  0  0  0
 39 35  2  0  0  0
 15  9  1  0  0  0
 27 18  1  0  0  0
 27 22  1  0  0  0
 30 33  1  0  0  0
M  CHG 1  38  -1
M  END
> <minimizedAffinity>
-7.82240

> <CNNscore>
0.2110606134

> <CNNaffinity>
6.4644136429

> <CNN_VS>
1.3643831015

> <CNNaffinity_variance>
0.1719318181

$$$$



 39 44  0  0  0  0  0  0  0  0999 V2000
   -9.3926   -0.9518  -22.6972 N   0  0  0  0  0  0  0  0  0  0  0  0
   -7.9183   -0.6877  -22.6143 C   0  0  0  0  0  0  0  0  0  0  0  0
   -7.3766    0.6626  -22.9791 C   0  0  0  0  0  0  0  0  0  0  0  0
   -6.6925    1.9558  -23.3100 C   0  0  0  0  0  0  0  0  0  0  0  0
   -6.9581    3.0777  -23.6938 O   0  0  0  0  0  0  0  0  0  0  0  0
   -5.2207    1.7723  -23.0862 N   0  0  0  0  0  0  0  0  0  0  0  0
   -4.9951    0.3655  -22.6170 C   0  0  0  0  0  0  0  0  0  0  0  0
   -6.3275   -0.3203  -22.5508 C   0  0  0  0  0  0  0  0  0  0  0  0
   -8.3091    1.7489  -23.4269 C   0  0  0  0  0  0  0  0  0  0  0  0
   -7.7673    3.0992  -23.7918 C   0  0  0  0  0  0  0  0  0  0  0  0
   -8.6998    4.1854  -24.2396 C   0  0  0  0  0  0  0  0  0  0  0  0
   -8.1581    5.5358  -24.6045 Cl  0  0  0  0  0  0  0  0  0  0  0  0
  -10.1741    3.9213  -24.3225 C   0  0  0  0  0  0  0  0  0  0  0  0
  -10.7158    2.5710  -23.9576 C   0  0  0  0  0  0  0  0  0  0  0  0
   -9.7833    1.4848  -23.5098 C   0  0  0  0  0  0  0  0  0  0  0  0
  -10.3251    0.1344  -23.1449 C   0  0  0  0  0  0  0  0  0  0  0  0
  -11.7993   -0.1296  -23.2278 O   0  0  0  0  0  0  0  0  0  0  0  0
   -4.1607    2.8128  -23.2949 C   0  0  0  0  0  0  0  0  0  0  0  0
   -3.6530    3.6105  -22.1304 C   0  0  0  0  0  0  0  0  0  0  0  0
   -2.5930    4.6510  -22.3391 N   0  0  0  0  0  0  0  0  0  0  0  0
   -2.0405    4.8938  -23.7123 C   0  0  0  0  0  0  0  0  0  0  0  0
   -2.5481    4.0962  -24.8768 C   0  0  0  0  0  0  0  0  0  0  0  0
   -1.9956    4.3391  -26.2501 C   0  0  0  0  0  0  0  0  0  0  0  0
   -2.5033    3.5413  -27.4146 C   0  0  0  0  0  0  0  0  0  0  0  0
   -3.5634    2.5008  -27.2059 C   0  0  0  0  0  0  0  0  0  0  0  0
   -4.1158    2.2580  -25.8326 C   0  0  0  0  0  0  0  0  0  0  0  0
   -3.6082    3.0557  -24.6681 C   0  0  0  0  0  0  0  0  0  0  0  0
   -9.9343   -2.3022  -22.3323 C   0  0  0  0  0  0  0  0  0  0  0  0
  -13.8568   -2.9053  -22.3508 C   0  0  0  0  0  0  0  0  0  0  0  0
  -12.4876   -2.4979  -21.8934 N   0  0  0  0  0  0  0  0  0  0  0  0
  -11.3036   -2.7095  -22.7897 C   0  0  0  0  0  0  0  0  0  0  0  0
  -11.4888   -3.3285  -24.1434 O   0  0  0  0  0  0  0  0  0  0  0  0
  -12.3660   -2.0917  -21.0049 H   0  0  0  0  0  0  0  0  0  0  0  0
   -6.5685   -1.7398  -22.1302 C   0  0  0  0  0  0  0  0  0  0  0  0
   -6.1412   -2.2015  -20.7686 C   0  0  0  0  0  0  0  0  0  0  0  0
   -5.2842   -3.3961  -20.4714 N   0  0  0  0  0  0  0  0  0  0  0  0
   -5.1092   -3.4826  -18.9842 N   0  0  0  0  0  0  0  0  0  0  0  0
   -5.8580   -2.3414  -18.3622 N   0  0  0  0  0  0  0  0  0  0  0  0
   -6.4958   -1.5496  -19.4650 N   0  0  0  0  0  0  0  0  0  0  0  0
 29 30  1  0  0  0
 30 31  1  0  0  0
 31 32  2  0  0  0
 31 28  1  0  0  0
 28  1  1  0  0  0
  1  2  1  0  0  0
  3  2  1  0  0  0
  3  4  1  0  0  0
  4  5  2  0  0  0
  4  6  1  0  0  0
  6 18  1  0  0  0
 18 19  2  0  0  0
 19 20  1  0  0  0
 20 21  2  0  0  0
 21 22  1  0  0  0
 22 23  2  0  0  0
 23 24  1  0  0  0
 24 25  2  0  0  0
 25 26  1  0  0  0
 26 27  2  0  0  0
  6  7  1  0  0  0
  7  8  1  0  0  0
  8 34  1  0  0  0
 34 35  1  0  0  0
 35 36  1  0  0  0
 36 37  2  0  0  0
 37 38  1  0  0  0
 38 39  1  0  0  0
  3  9  1  0  0  0
  9 10  2  0  0  0
 10 11  1  0  0  0
 11 12  1  0  0  0
 11 13  2  0  0  0
 13 14  1  0  0  0
 14 15  2  0  0  0
 15 16  1  0  0  0
 16 17  2  0  0  0
 16  1  1  0  0  0
  8  3  1  0  0  0
 39 35  2  0  0  0
 15  9  1  0  0  0
 27 18  1  0  0  0
 27 22  1  0  0  0
 30 33  1  0  0  0
M  CHG 1  38  -1
M  END
> <minimizedAffinity>
-7.48636

> <CNNscore>
0.2106667161

> <CNNaffinity>
6.4910364151

> <CNN_VS>
1.3674453497

> <CNNaffinity_variance>
0.0521197431

$$$$



 39 44  0  0  0  0  0  0  0  0999 V2000
   -7.0175   -4.1051  -26.0717 N   0  0  0  0  0  0  0  0  0  0  0  0
   -6.5748   -4.1146  -24.6386 C   0  0  0  0  0  0  0  0  0  0  0  0
   -6.5075   -2.8307  -23.8658 C   0  0  0  0  0  0  0  0  0  0  0  0
   -6.3913   -1.6325  -22.9710 C   0  0  0  0  0  0  0  0  0  0  0  0
   -6.5600   -0.4296  -22.9995 O   0  0  0  0  0  0  0  0  0  0  0  0
   -5.9152   -2.1014  -21.6280 N   0  0  0  0  0  0  0  0  0  0  0  0
   -5.7373   -3.5894  -21.6928 C   0  0  0  0  0  0  0  0  0  0  0  0
   -6.1034   -4.0401  -23.0759 C   0  0  0  0  0  0  0  0  0  0  0  0
   -6.8830   -1.5373  -24.5263 C   0  0  0  0  0  0  0  0  0  0  0  0
   -6.8157   -0.2534  -23.7536 C   0  0  0  0  0  0  0  0  0  0  0  0
   -7.1911    1.0400  -24.4140 C   0  0  0  0  0  0  0  0  0  0  0  0
   -7.1238    2.3239  -23.6413 Cl  0  0  0  0  0  0  0  0  0  0  0  0
   -7.6338    1.0495  -25.8471 C   0  0  0  0  0  0  0  0  0  0  0  0
   -7.7011   -0.2344  -26.6199 C   0  0  0  0  0  0  0  0  0  0  0  0
   -7.3257   -1.5277  -25.9594 C   0  0  0  0  0  0  0  0  0  0  0  0
   -7.3930   -2.8117  -26.7321 C   0  0  0  0  0  0  0  0  0  0  0  0
   -7.8357   -2.8022  -28.1653 O   0  0  0  0  0  0  0  0  0  0  0  0
   -5.6617   -1.2344  -20.4305 C   0  0  0  0  0  0  0  0  0  0  0  0
   -6.4876   -1.4080  -19.1904 C   0  0  0  0  0  0  0  0  0  0  0  0
   -6.2341   -0.5410  -17.9929 N   0  0  0  0  0  0  0  0  0  0  0  0
   -5.1545    0.4995  -18.0354 C   0  0  0  0  0  0  0  0  0  0  0  0
   -4.3285    0.6731  -19.2755 C   0  0  0  0  0  0  0  0  0  0  0  0
   -3.2489    1.7137  -19.3179 C   0  0  0  0  0  0  0  0  0  0  0  0
   -2.4230    1.8872  -20.5580 C   0  0  0  0  0  0  0  0  0  0  0  0
   -2.6766    1.0203  -21.7555 C   0  0  0  0  0  0  0  0  0  0  0  0
   -3.7561   -0.0203  -21.7130 C   0  0  0  0  0  0  0  0  0  0  0  0
   -4.5821   -0.1939  -20.4730 C   0  0  0  0  0  0  0  0  0  0  0  0
   -7.0848   -5.3890  -26.8444 C   0  0  0  0  0  0  0  0  0  0  0  0
  -10.9083   -6.3531  -26.3955 C   0  0  0  0  0  0  0  0  0  0  0  0
   -9.6287   -5.5717  -26.3493 N   0  0  0  0  0  0  0  0  0  0  0  0
   -8.3644   -6.1704  -26.8906 C   0  0  0  0  0  0  0  0  0  0  0  0
   -8.3796   -7.5505  -27.4781 O   0  0  0  0  0  0  0  0  0  0  0  0
   -9.6187   -4.6659  -25.9637 H   0  0  0  0  0  0  0  0  0  0  0  0
   -6.0710   -5.4523  -23.5804 C   0  0  0  0  0  0  0  0  0  0  0  0
   -4.7567   -6.1198  -23.8575 C   0  0  0  0  0  0  0  0  0  0  0  0
   -3.9496   -5.9895  -25.1152 N   0  0  0  0  0  0  0  0  0  0  0  0
   -2.7127   -6.8240  -24.9607 N   0  0  0  0  0  0  0  0  0  0  0  0
   -2.7554   -7.4700  -23.6076 N   0  0  0  0  0  0  0  0  0  0  0  0
   -4.0186   -7.0348  -22.9259 N   0  0  0  0  0  0  0  0  0  0  0  0
 29 30  1  0  0  0
 30 31  1  0  0  0
 31 32  2  0  0  0
 31 28  1  0  0  0
 28  1  1  0  0  0
  1  2  1  0  0  0
  3  2  1  0  0  0
  3  4  1  0  0  0
  4  5  2  0  0  0
  4  6  1  0  0  0
  6 18  1  0  0  0
 18 19  2  0  0  0
 19 20  1  0  0  0
 20 21  2  0  0  0
 21 22  1  0  0  0
 22 23  2  0  0  0
 23 24  1  0  0  0
 24 25  2  0  0  0
 25 26  1  0  0  0
 26 27  2  0  0  0
  6  7  1  0  0  0
  7  8  1  0  0  0
  8 34  1  0  0  0
 34 35  1  0  0  0
 35 36  1  0  0  0
 36 37  2  0  0  0
 37 38  1  0  0  0
 38 39  1  0  0  0
  3  9  1  0  0  0
  9 10  2  0  0  0
 10 11  1  0  0  0
 11 12  1  0  0  0
 11 13  2  0  0  0
 13 14  1  0  0  0
 14 15  2  0  0  0
 15 16  1  0  0  0
 16 17  2  0  0  0
 16  1  1  0  0  0
  8  3  1  0  0  0
 39 35  2  0  0  0
 15  9  1  0  0  0
 27 18  1  0  0  0
 27 22  1  0  0  0
 30 33  1  0  0  0
M  CHG 1  38  -1
M  END
> <minimizedAffinity>
-7.35400

> <CNNscore>
0.1978811324

> <CNNaffinity>
6.3207645416

> <CNN_VS>
1.2507600784

> <CNNaffinity_variance>
0.0771095008

$$$$



 39 44  0  0  0  0  0  0  0  0999 V2000
   -9.0786   -2.5876  -22.8008 N   0  0  0  0  0  0  0  0  0  0  0  0
   -8.0231   -1.5227  -22.7580 C   0  0  0  0  0  0  0  0  0  0  0  0
   -8.3969   -0.0869  -22.9784 C   0  0  0  0  0  0  0  0  0  0  0  0
   -8.6188    1.3830  -23.1791 C   0  0  0  0  0  0  0  0  0  0  0  0
   -9.5197    2.1657  -23.4072 O   0  0  0  0  0  0  0  0  0  0  0  0
   -7.2932    2.0735  -23.0521 N   0  0  0  0  0  0  0  0  0  0  0  0
   -6.2521    1.0304  -22.7729 C   0  0  0  0  0  0  0  0  0  0  0  0
   -6.9342   -0.3048  -22.7273 C   0  0  0  0  0  0  0  0  0  0  0  0
   -9.8264    0.2841  -23.2416 C   0  0  0  0  0  0  0  0  0  0  0  0
  -10.2002    1.7199  -23.4620 C   0  0  0  0  0  0  0  0  0  0  0  0
  -11.6296    2.0907  -23.7252 C   0  0  0  0  0  0  0  0  0  0  0  0
  -12.0035    3.5266  -23.9457 Cl  0  0  0  0  0  0  0  0  0  0  0  0
  -12.6851    1.0258  -23.7681 C   0  0  0  0  0  0  0  0  0  0  0  0
  -12.3112   -0.4100  -23.5477 C   0  0  0  0  0  0  0  0  0  0  0  0
  -10.8819   -0.7809  -23.2844 C   0  0  0  0  0  0  0  0  0  0  0  0
  -10.5079   -2.2168  -23.0640 C   0  0  0  0  0  0  0  0  0  0  0  0
  -11.5634   -3.2817  -23.1068 O   0  0  0  0  0  0  0  0  0  0  0  0
   -7.0513    3.5482  -23.1816 C   0  0  0  0  0  0  0  0  0  0  0  0
   -6.9753    4.4064  -21.9537 C   0  0  0  0  0  0  0  0  0  0  0  0
   -6.7334    5.8811  -22.0832 N   0  0  0  0  0  0  0  0  0  0  0  0
   -6.5674    6.4975  -23.4406 C   0  0  0  0  0  0  0  0  0  0  0  0
   -6.6435    5.6393  -24.6684 C   0  0  0  0  0  0  0  0  0  0  0  0
   -6.4776    6.2558  -26.0259 C   0  0  0  0  0  0  0  0  0  0  0  0
   -6.5536    5.3974  -27.2537 C   0  0  0  0  0  0  0  0  0  0  0  0
   -6.7955    3.9228  -27.1242 C   0  0  0  0  0  0  0  0  0  0  0  0
   -6.9614    3.3063  -25.7668 C   0  0  0  0  0  0  0  0  0  0  0  0
   -6.8854    4.1646  -24.5389 C   0  0  0  0  0  0  0  0  0  0  0  0
   -8.7046   -4.0235  -22.5804 C   0  0  0  0  0  0  0  0  0  0  0  0
   -7.9482   -5.7589  -26.0684 C   0  0  0  0  0  0  0  0  0  0  0  0
   -8.6567   -4.9943  -24.9898 N   0  0  0  0  0  0  0  0  0  0  0  0
   -7.9961   -4.7881  -23.6590 C   0  0  0  0  0  0  0  0  0  0  0  0
   -6.6269   -5.3464  -23.4068 O   0  0  0  0  0  0  0  0  0  0  0  0
   -9.5554   -4.6278  -25.1553 H   0  0  0  0  0  0  0  0  0  0  0  0
   -6.2702   -1.6259  -22.4750 C   0  0  0  0  0  0  0  0  0  0  0  0
   -5.9771   -2.0618  -21.0700 C   0  0  0  0  0  0  0  0  0  0  0  0
   -6.2869   -1.2868  -19.8237 N   0  0  0  0  0  0  0  0  0  0  0  0
   -5.8240   -2.0952  -18.6480 N   0  0  0  0  0  0  0  0  0  0  0  0
   -5.2281   -3.3699  -19.1678 N   0  0  0  0  0  0  0  0  0  0  0  0
   -5.3227   -3.3492  -20.6646 N   0  0  0  0  0  0  0  0  0  0  0  0
 29 30  1  0  0  0
 30 31  1  0  0  0
 31 32  2  0  0  0
 31 28  1  0  0  0
 28  1  1  0  0  0
  1  2  1  0  0  0
  3  2  1  0  0  0
  3  4  1  0  0  0
  4  5  2  0  0  0
  4  6  1  0  0  0
  6 18  1  0  0  0
 18 19  2  0  0  0
 19 20  1  0  0  0
 20 21  2  0  0  0
 21 22  1  0  0  0
 22 23  2  0  0  0
 23 24  1  0  0  0
 24 25  2  0  0  0
 25 26  1  0  0  0
 26 27  2  0  0  0
  6  7  1  0  0  0
  7  8  1  0  0  0
  8 34  1  0  0  0
 34 35  1  0  0  0
 35 36  1  0  0  0
 36 37  2  0  0  0
 37 38  1  0  0  0
 38 39  1  0  0  0
  3  9  1  0  0  0
  9 10  2  0  0  0
 10 11  1  0  0  0
 11 12  1  0  0  0
 11 13  2  0  0  0
 13 14  1  0  0  0
 14 15  2  0  0  0
 15 16  1  0  0  0
 16 17  2  0  0  0
 16  1  1  0  0  0
  8  3  1  0  0  0
 39 35  2  0  0  0
 15  9  1  0  0  0
 27 18  1  0  0  0
 27 22  1  0  0  0
 30 33  1  0  0  0
M  CHG 1  38  -1
M  END
> <minimizedAffinity>
-8.01056

> <CNNscore>
0.1971363425

> <CNNaffinity>
6.5609297752

> <CNN_VS>
1.2933976650

> <CNNaffinity_variance>
0.1139946356

$$$$



 39 44  0  0  0  0  0  0  0  0999 V2000
   -9.6546   -2.1539  -23.5808 N   0  0  0  0  0  0  0  0  0  0  0  0
   -8.2896   -2.2342  -22.9641 C   0  0  0  0  0  0  0  0  0  0  0  0
   -7.5353   -0.9774  -22.6458 C   0  0  0  0  0  0  0  0  0  0  0  0
   -6.6659    0.1871  -22.2741 C   0  0  0  0  0  0  0  0  0  0  0  0
   -6.6759    1.4018  -22.2997 O   0  0  0  0  0  0  0  0  0  0  0  0
   -5.3933   -0.3521  -21.6911 N   0  0  0  0  0  0  0  0  0  0  0  0
   -5.4762   -1.8497  -21.7025 C   0  0  0  0  0  0  0  0  0  0  0  0
   -6.8000   -2.2362  -22.2926 C   0  0  0  0  0  0  0  0  0  0  0  0
   -8.1460    0.3599  -22.9443 C   0  0  0  0  0  0  0  0  0  0  0  0
   -7.3917    1.6167  -22.6260 C   0  0  0  0  0  0  0  0  0  0  0  0
   -8.0023    2.9538  -22.9245 C   0  0  0  0  0  0  0  0  0  0  0  0
   -7.2480    4.2107  -22.6063 Cl  0  0  0  0  0  0  0  0  0  0  0  0
   -9.3673    3.0341  -23.5412 C   0  0  0  0  0  0  0  0  0  0  0  0
  -10.1216    1.7773  -23.8595 C   0  0  0  0  0  0  0  0  0  0  0  0
   -9.5110    0.4401  -23.5610 C   0  0  0  0  0  0  0  0  0  0  0  0
  -10.2653   -0.8168  -23.8793 C   0  0  0  0  0  0  0  0  0  0  0  0
  -11.6303   -0.7365  -24.4960 O   0  0  0  0  0  0  0  0  0  0  0  0
   -4.2403    0.4633  -21.1854 C   0  0  0  0  0  0  0  0  0  0  0  0
   -4.2224    0.9350  -19.7616 C   0  0  0  0  0  0  0  0  0  0  0  0
   -3.0694    1.7503  -19.2560 N   0  0  0  0  0  0  0  0  0  0  0  0
   -1.9342    2.0941  -20.1741 C   0  0  0  0  0  0  0  0  0  0  0  0
   -1.9520    1.6224  -21.5980 C   0  0  0  0  0  0  0  0  0  0  0  0
   -0.8167    1.9662  -22.5162 C   0  0  0  0  0  0  0  0  0  0  0  0
   -0.8346    1.4945  -23.9400 C   0  0  0  0  0  0  0  0  0  0  0  0
   -1.9876    0.6792  -24.4456 C   0  0  0  0  0  0  0  0  0  0  0  0
   -3.1228    0.3354  -23.5275 C   0  0  0  0  0  0  0  0  0  0  0  0
   -3.1050    0.8071  -22.1036 C   0  0  0  0  0  0  0  0  0  0  0  0
  -10.4089   -3.4109  -23.8991 C   0  0  0  0  0  0  0  0  0  0  0  0
  -10.4666   -6.1429  -26.7770 C   0  0  0  0  0  0  0  0  0  0  0  0
  -10.6153   -5.4997  -25.4300 N   0  0  0  0  0  0  0  0  0  0  0  0
  -10.2602   -4.0541  -25.2460 C   0  0  0  0  0  0  0  0  0  0  0  0
   -9.7565   -3.2515  -26.4089 O   0  0  0  0  0  0  0  0  0  0  0  0
  -10.9459   -6.0264  -24.6668 H   0  0  0  0  0  0  0  0  0  0  0  0
   -7.3007   -3.6357  -22.4940 C   0  0  0  0  0  0  0  0  0  0  0  0
   -6.3266   -4.7640  -22.6608 C   0  0  0  0  0  0  0  0  0  0  0  0
   -5.9966   -5.4610  -23.9474 N   0  0  0  0  0  0  0  0  0  0  0  0
   -4.9775   -6.5212  -23.6522 N   0  0  0  0  0  0  0  0  0  0  0  0
   -4.6775   -6.4796  -22.1831 N   0  0  0  0  0  0  0  0  0  0  0  0
   -5.5113   -5.3936  -21.5704 N   0  0  0  0  0  0  0  0  0  0  0  0
 29 30  1  0  0  0
 30 31  1  0  0  0
 31 32  2  0  0  0
 31 28  1  0  0  0
 28  1  1  0  0  0
  1  2  1  0  0  0
  3  2  1  0  0  0
  3  4  1  0  0  0
  4  5  2  0  0  0
  4  6  1  0  0  0
  6 18  1  0  0  0
 18 19  2  0  0  0
 19 20  1  0  0  0
 20 21  2  0  0  0
 21 22  1  0  0  0
 22 23  2  0  0  0
 23 24  1  0  0  0
 24 25  2  0  0  0
 25 26  1  0  0  0
 26 27  2  0  0  0
  6  7  1  0  0  0
  7  8  1  0  0  0
  8 34  1  0  0  0
 34 35  1  0  0  0
 35 36  1  0  0  0
 36 37  2  0  0  0
 37 38  1  0  0  0
 38 39  1  0  0  0
  3  9  1  0  0  0
  9 10  2  0  0  0
 10 11  1  0  0  0
 11 12  1  0  0  0
 11 13  2  0  0  0
 13 14  1  0  0  0
 14 15  2  0  0  0
 15 16  1  0  0  0
 16 17  2  0  0  0
 16  1  1  0  0  0
  8  3  1  0  0  0
 39 35  2  0  0  0
 15  9  1  0  0  0
 27 18  1  0  0  0
 27 22  1  0  0  0
 30 33  1  0  0  0
M  CHG 1  38  -1
M  END
> <minimizedAffinity>
-8.10210

> <CNNscore>
0.1955217570

> <CNNaffinity>
6.4391603470

> <CNN_VS>
1.2589958906

> <CNNaffinity_variance>
0.1386711597

$$$$



 39 44  0  0  0  0  0  0  0  0999 V2000
   -7.9481   -2.6280  -22.6583 N   0  0  0  0  0  0  0  0  0  0  0  0
   -8.6793   -1.4131  -23.1475 C   0  0  0  0  0  0  0  0  0  0  0  0
   -8.0693   -0.0529  -22.9812 C   0  0  0  0  0  0  0  0  0  0  0  0
   -7.5876    1.3644  -22.8849 C   0  0  0  0  0  0  0  0  0  0  0  0
   -6.6359    1.9982  -22.4739 O   0  0  0  0  0  0  0  0  0  0  0  0
   -8.6312    2.2513  -23.4968 N   0  0  0  0  0  0  0  0  0  0  0  0
   -9.7579    1.3821  -23.9713 C   0  0  0  0  0  0  0  0  0  0  0  0
   -9.4106   -0.0419  -23.6526 C   0  0  0  0  0  0  0  0  0  0  0  0
   -6.7279    0.0924  -22.3257 C   0  0  0  0  0  0  0  0  0  0  0  0
   -6.1178    1.4526  -22.1594 C   0  0  0  0  0  0  0  0  0  0  0  0
   -4.7764    1.5979  -21.5039 C   0  0  0  0  0  0  0  0  0  0  0  0
   -4.1663    2.9581  -21.3376 Cl  0  0  0  0  0  0  0  0  0  0  0  0
   -4.0452    0.3830  -21.0147 C   0  0  0  0  0  0  0  0  0  0  0  0
   -4.6553   -0.9772  -21.1810 C   0  0  0  0  0  0  0  0  0  0  0  0
   -5.9966   -1.1225  -21.8365 C   0  0  0  0  0  0  0  0  0  0  0  0
   -6.6068   -2.4827  -22.0028 C   0  0  0  0  0  0  0  0  0  0  0  0
   -5.8755   -3.6976  -21.5136 O   0  0  0  0  0  0  0  0  0  0  0  0
   -8.5605    3.7450  -23.6137 C   0  0  0  0  0  0  0  0  0  0  0  0
   -7.5403    4.5116  -22.8253 C   0  0  0  0  0  0  0  0  0  0  0  0
   -7.4696    6.0054  -22.9422 N   0  0  0  0  0  0  0  0  0  0  0  0
   -8.4191    6.7325  -23.8474 C   0  0  0  0  0  0  0  0  0  0  0  0
   -9.4393    5.9660  -24.6358 C   0  0  0  0  0  0  0  0  0  0  0  0
  -10.3889    6.6933  -25.5412 C   0  0  0  0  0  0  0  0  0  0  0  0
  -11.4091    5.9266  -26.3295 C   0  0  0  0  0  0  0  0  0  0  0  0
  -11.4798    4.4328  -26.2126 C   0  0  0  0  0  0  0  0  0  0  0  0
  -10.5302    3.7057  -25.3074 C   0  0  0  0  0  0  0  0  0  0  0  0
   -9.5100    4.4722  -24.5190 C   0  0  0  0  0  0  0  0  0  0  0  0
   -8.5583   -3.9882  -22.8246 C   0  0  0  0  0  0  0  0  0  0  0  0
   -7.2562   -6.1102  -25.9152 C   0  0  0  0  0  0  0  0  0  0  0  0
   -7.2954   -5.4289  -24.5794 N   0  0  0  0  0  0  0  0  0  0  0  0
   -8.5191   -4.6695  -24.1604 C   0  0  0  0  0  0  0  0  0  0  0  0
   -9.7039   -4.5913  -25.0771 O   0  0  0  0  0  0  0  0  0  0  0  0
   -6.5178   -5.4802  -23.9777 H   0  0  0  0  0  0  0  0  0  0  0  0
  -10.2562   -1.2440  -23.9527 C   0  0  0  0  0  0  0  0  0  0  0  0
  -11.6838   -1.2899  -23.4949 C   0  0  0  0  0  0  0  0  0  0  0  0
  -12.2689   -2.2783  -22.5302 N   0  0  0  0  0  0  0  0  0  0  0  0
  -13.7238   -1.9549  -22.3605 N   0  0  0  0  0  0  0  0  0  0  0  0
  -14.0378   -0.7666  -23.2204 N   0  0  0  0  0  0  0  0  0  0  0  0
  -12.7770   -0.3557  -23.9215 N   0  0  0  0  0  0  0  0  0  0  0  0
 29 30  1  0  0  0
 30 31  1  0  0  0
 31 32  2  0  0  0
 31 28  1  0  0  0
 28  1  1  0  0  0
  1  2  1  0  0  0
  3  2  1  0  0  0
  3  4  1  0  0  0
  4  5  2  0  0  0
  4  6  1  0  0  0
  6 18  1  0  0  0
 18 19  2  0  0  0
 19 20  1  0  0  0
 20 21  2  0  0  0
 21 22  1  0  0  0
 22 23  2  0  0  0
 23 24  1  0  0  0
 24 25  2  0  0  0
 25 26  1  0  0  0
 26 27  2  0  0  0
  6  7  1  0  0  0
  7  8  1  0  0  0
  8 34  1  0  0  0
 34 35  1  0  0  0
 35 36  1  0  0  0
 36 37  2  0  0  0
 37 38  1  0  0  0
 38 39  1  0  0  0
  3  9  1  0  0  0
  9 10  2  0  0  0
 10 11  1  0  0  0
 11 12  1  0  0  0
 11 13  2  0  0  0
 13 14  1  0  0  0
 14 15  2  0  0  0
 15 16  1  0  0  0
 16 17  2  0  0  0
 16  1  1  0  0  0
  8  3  1  0  0  0
 39 35  2  0  0  0
 15  9  1  0  0  0
 27 18  1  0  0  0
 27 22  1  0  0  0
 30 33  1  0  0  0
M  CHG 1  38  -1
M  END
> <minimizedAffinity>
-7.50141

> <CNNscore>
0.1907780915

> <CNNaffinity>
6.5369119644

> <CNN_VS>
1.2470996380

> <CNNaffinity_variance>
0.2893370986

$$$$



 39 44  0  0  0  0  0  0  0  0999 V2000
   -8.9868   -0.9737  -23.1848 N   0  0  0  0  0  0  0  0  0  0  0  0
   -7.6149   -0.5499  -22.7508 C   0  0  0  0  0  0  0  0  0  0  0  0
   -7.2154    0.8937  -22.8313 C   0  0  0  0  0  0  0  0  0  0  0  0
   -6.6766    2.2934  -22.8542 C   0  0  0  0  0  0  0  0  0  0  0  0
   -7.0213    3.4186  -23.1563 O   0  0  0  0  0  0  0  0  0  0  0  0
   -5.2696    2.2570  -22.3353 N   0  0  0  0  0  0  0  0  0  0  0  0
   -4.9389    0.8349  -21.9917 C   0  0  0  0  0  0  0  0  0  0  0  0
   -6.1414   -0.0077  -22.2983 C   0  0  0  0  0  0  0  0  0  0  0  0
   -8.1878    1.9134  -23.3459 C   0  0  0  0  0  0  0  0  0  0  0  0
   -7.7882    3.3570  -23.4264 C   0  0  0  0  0  0  0  0  0  0  0  0
   -8.7606    4.3766  -23.9409 C   0  0  0  0  0  0  0  0  0  0  0  0
   -8.3611    5.8203  -24.0214 Cl  0  0  0  0  0  0  0  0  0  0  0  0
  -10.1325    3.9528  -24.3749 C   0  0  0  0  0  0  0  0  0  0  0  0
  -10.5320    2.5092  -24.2943 C   0  0  0  0  0  0  0  0  0  0  0  0
   -9.5596    1.4896  -23.7798 C   0  0  0  0  0  0  0  0  0  0  0  0
   -9.9591    0.0459  -23.6993 C   0  0  0  0  0  0  0  0  0  0  0  0
  -11.3310   -0.3779  -24.1332 O   0  0  0  0  0  0  0  0  0  0  0  0
   -4.3542    3.4359  -22.1861 C   0  0  0  0  0  0  0  0  0  0  0  0
   -4.7494    4.7685  -22.7502 C   0  0  0  0  0  0  0  0  0  0  0  0
   -3.8340    5.9473  -22.6010 N   0  0  0  0  0  0  0  0  0  0  0  0
   -2.5234    5.7936  -21.8879 C   0  0  0  0  0  0  0  0  0  0  0  0
   -2.1282    4.4611  -21.3238 C   0  0  0  0  0  0  0  0  0  0  0  0
   -0.8175    4.3074  -20.6106 C   0  0  0  0  0  0  0  0  0  0  0  0
   -0.4224    2.9748  -20.0466 C   0  0  0  0  0  0  0  0  0  0  0  0
   -1.3378    1.7959  -20.1958 C   0  0  0  0  0  0  0  0  0  0  0  0
   -2.6484    1.9496  -20.9089 C   0  0  0  0  0  0  0  0  0  0  0  0
   -3.0436    3.2822  -21.4730 C   0  0  0  0  0  0  0  0  0  0  0  0
   -9.3862   -2.4174  -23.1042 C   0  0  0  0  0  0  0  0  0  0  0  0
  -13.2234   -2.7115  -22.1348 C   0  0  0  0  0  0  0  0  0  0  0  0
  -11.7735   -2.3305  -22.0828 N   0  0  0  0  0  0  0  0  0  0  0  0
  -10.8361   -2.7983  -23.1562 C   0  0  0  0  0  0  0  0  0  0  0  0
  -11.3486   -3.6472  -24.2818 O   0  0  0  0  0  0  0  0  0  0  0  0
  -11.4371   -1.7734  -21.3440 H   0  0  0  0  0  0  0  0  0  0  0  0
   -6.2508   -1.4913  -22.1057 C   0  0  0  0  0  0  0  0  0  0  0  0
   -5.9682   -2.0960  -20.7625 C   0  0  0  0  0  0  0  0  0  0  0  0
   -5.2554   -3.3918  -20.5114 N   0  0  0  0  0  0  0  0  0  0  0  0
   -5.1954   -3.6079  -19.0283 N   0  0  0  0  0  0  0  0  0  0  0  0
   -5.8709   -2.4457  -18.3627 N   0  0  0  0  0  0  0  0  0  0  0  0
   -6.3485   -1.5114  -19.4346 N   0  0  0  0  0  0  0  0  0  0  0  0
 29 30  1  0  0  0
 30 31  1  0  0  0
 31 32  2  0  0  0
 31 28  1  0  0  0
 28  1  1  0  0  0
  1  2  1  0  0  0
  3  2  1  0  0  0
  3  4  1  0  0  0
  4  5  2  0  0  0
  4  6  1  0  0  0
  6 18  1  0  0  0
 18 19  2  0  0  0
 19 20  1  0  0  0
 20 21  2  0  0  0
 21 22  1  0  0  0
 22 23  2  0  0  0
 23 24  1  0  0  0
 24 25  2  0  0  0
 25 26  1  0  0  0
 26 27  2  0  0  0
  6  7  1  0  0  0
  7  8  1  0  0  0
  8 34  1  0  0  0
 34 35  1  0  0  0
 35 36  1  0  0  0
 36 37  2  0  0  0
 37 38  1  0  0  0
 38 39  1  0  0  0
  3  9  1  0  0  0
  9 10  2  0  0  0
 10 11  1  0  0  0
 11 12  1  0  0  0
 11 13  2  0  0  0
 13 14  1  0  0  0
 14 15  2  0  0  0
 15 16  1  0  0  0
 16 17  2  0  0  0
 16  1  1  0  0  0
  8  3  1  0  0  0
 39 35  2  0  0  0
 15  9  1  0  0  0
 27 18  1  0  0  0
 27 22  1  0  0  0
 30 33  1  0  0  0
M  CHG 1  38  -1
M  END
> <minimizedAffinity>
-9.00401

> <CNNscore>
0.1857729554

> <CNNaffinity>
6.5523405075

> <CNN_VS>
1.2172476053

> <CNNaffinity_variance>
0.0407901816

$$$$
