


 39 44  0  0  0  0  0  0  0  0999 V2000
    9.8934    1.0771   23.4836 N   0  0  0  0  0  0  0  0  0  0  0  0
    8.5363    0.5030   23.7640 C   0  0  0  0  0  0  0  0  0  0  0  0
    8.4056   -0.7496   24.5787 C   0  0  0  0  0  0  0  0  0  0  0  0
    8.1196   -1.9891   25.3736 C   0  0  0  0  0  0  0  0  0  0  0  0
    8.7075   -2.8577   25.9871 O   0  0  0  0  0  0  0  0  0  0  0  0
    6.6334   -2.1906   25.3997 N   0  0  0  0  0  0  0  0  0  0  0  0
    6.0008   -1.0756   24.6208 C   0  0  0  0  0  0  0  0  0  0  0  0
    7.0961   -0.1850   24.1135 C   0  0  0  0  0  0  0  0  0  0  0  0
    6.9138    1.0528   23.2861 C   0  0  0  0  0  0  0  0  0  0  0  0
    9.6320   -1.4282   25.1130 C   0  0  0  0  0  0  0  0  0  0  0  0
    9.5013   -2.6809   25.9277 C   0  0  0  0  0  0  0  0  0  0  0  0
   10.7277   -3.3594   26.4619 C   0  0  0  0  0  0  0  0  0  0  0  0
   10.5970   -4.6122   27.2766 Cl  0  0  0  0  0  0  0  0  0  0  0  0
   12.0848   -2.7853   26.1815 C   0  0  0  0  0  0  0  0  0  0  0  0
   12.2155   -1.5327   25.3668 C   0  0  0  0  0  0  0  0  0  0  0  0
   10.9891   -0.8541   24.8326 C   0  0  0  0  0  0  0  0  0  0  0  0
   11.1198    0.3986   24.0179 C   0  0  0  0  0  0  0  0  0  0  0  0
   12.4769    0.9727   23.7374 O   0  0  0  0  0  0  0  0  0  0  0  0
    5.9074   -3.3105   26.0843 C   0  0  0  0  0  0  0  0  0  0  0  0
    5.5728   -4.5612   25.3269 C   0  0  0  0  0  0  0  0  0  0  0  0
    4.8468   -5.6811   26.0115 N   0  0  0  0  0  0  0  0  0  0  0  0
    4.4553   -5.5502   27.4536 C   0  0  0  0  0  0  0  0  0  0  0  0
    4.7899   -4.2994   28.2110 C   0  0  0  0  0  0  0  0  0  0  0  0
    4.3983   -4.1685   29.6532 C   0  0  0  0  0  0  0  0  0  0  0  0
    4.7330   -2.9177   30.4105 C   0  0  0  0  0  0  0  0  0  0  0  0
    5.4590   -1.7978   29.7258 C   0  0  0  0  0  0  0  0  0  0  0  0
    5.8505   -1.9288   28.2838 C   0  0  0  0  0  0  0  0  0  0  0  0
    5.5159   -3.1795   27.5264 C   0  0  0  0  0  0  0  0  0  0  0  0
   10.0241    2.3298   22.6689 C   0  0  0  0  0  0  0  0  0  0  0  0
    9.1942    3.5333   23.0053 C   0  0  0  0  0  0  0  0  0  0  0  0
    8.7984    8.6701   23.6808 C   0  0  0  0  0  0  0  0  0  0  0  0
    9.5902    7.4751   23.2389 C   0  0  0  0  0  0  0  0  0  0  0  0
    8.9963    6.1017   23.3431 C   0  0  0  0  0  0  0  0  0  0  0  0
    9.7881    4.9067   22.9012 N   0  0  0  0  0  0  0  0  0  0  0  0
   11.1737    5.0852   22.3553 C   0  0  0  0  0  0  0  0  0  0  0  0
   11.9655    3.8903   21.9134 C   0  0  0  0  0  0  0  0  0  0  0  0
   11.7676    6.4588   22.2511 C   0  0  0  0  0  0  0  0  0  0  0  0
   10.9759    7.6537   22.6930 O   0  0  0  0  0  0  0  0  0  0  0  0
    8.8458    4.7853   23.2725 H   0  0  0  0  0  0  0  0  0  0  0  0
 32 31  1  0  0  0
 32 33  1  0  0  0
 33 34  1  0  0  0
 34 30  1  0  0  0
 30 29  1  0  0  0
 29  1  1  0  0  0
  1  2  1  0  0  0
  3  2  1  0  0  0
  3  4  1  0  0  0
  4  5  2  0  0  0
  4  6  1  0  0  0
  6 19  1  0  0  0
 19 20  2  0  0  0
 20 21  1  0  0  0
 21 22  2  0  0  0
 22 23  1  0  0  0
 23 24  2  0  0  0
 24 25  1  0  0  0
 25 26  2  0  0  0
 26 27  1  0  0  0
 27 28  2  0  0  0
  6  7  1  0  0  0
  7  8  1  0  0  0
  8  9  1  0  0  0
  3 10  1  0  0  0
 10 11  2  0  0  0
 11 12  1  0  0  0
 12 13  1  0  0  0
 12 14  2  0  0  0
 14 15  1  0  0  0
 15 16  2  0  0  0
 16 17  1  0  0  0
 17 18  2  0  0  0
 34 35  1  0  0  0
 35 36  1  0  0  0
 35 37  1  0  0  0
 37 38  1  0  0  0
 38 32  1  0  0  0
 17  1  1  0  0  0
  8  3  1  0  0  0
 16 10  1  0  0  0
 28 19  1  0  0  0
 28 23  1  0  0  0
 34 39  1  0  0  0
M  CHG 1  34   1
M  END
> <minimizedAffinity>
-8.67010

> <CNNscore>
0.3687607050

> <CNNaffinity>
6.6603403091

> <CNN_VS>
2.4560718536

> <CNNaffinity_variance>
0.1109313965

$$$$



 39 44  0  0  0  0  0  0  0  0999 V2000
   10.3922    0.9667   23.7210 N   0  0  0  0  0  0  0  0  0  0  0  0
    9.0163    0.5692   24.1668 C   0  0  0  0  0  0  0  0  0  0  0  0
    8.8238   -0.6674   24.9936 C   0  0  0  0  0  0  0  0  0  0  0  0
    8.4778   -1.8706   25.8198 C   0  0  0  0  0  0  0  0  0  0  0  0
    9.0179   -2.8166   26.3582 O   0  0  0  0  0  0  0  0  0  0  0  0
    6.9924   -1.8783   26.0283 N   0  0  0  0  0  0  0  0  0  0  0  0
    6.4203   -0.6798   25.3310 C   0  0  0  0  0  0  0  0  0  0  0  0
    7.5521    0.0685   24.6915 C   0  0  0  0  0  0  0  0  0  0  0  0
    7.4332    1.3312   23.8905 C   0  0  0  0  0  0  0  0  0  0  0  0
   10.0073   -1.5066   25.3747 C   0  0  0  0  0  0  0  0  0  0  0  0
    9.8148   -2.7433   26.2015 C   0  0  0  0  0  0  0  0  0  0  0  0
   10.9982   -3.5824   26.5825 C   0  0  0  0  0  0  0  0  0  0  0  0
   10.8057   -4.8191   27.4093 Cl  0  0  0  0  0  0  0  0  0  0  0  0
   12.3742   -3.1849   26.1367 C   0  0  0  0  0  0  0  0  0  0  0  0
   12.5667   -1.9483   25.3098 C   0  0  0  0  0  0  0  0  0  0  0  0
   11.3832   -1.1092   24.9288 C   0  0  0  0  0  0  0  0  0  0  0  0
   11.5757    0.1275   24.1020 C   0  0  0  0  0  0  0  0  0  0  0  0
   12.9517    0.5250   23.6562 O   0  0  0  0  0  0  0  0  0  0  0  0
    6.2156   -2.9043   26.7989 C   0  0  0  0  0  0  0  0  0  0  0  0
    6.0980   -2.7919   28.2901 C   0  0  0  0  0  0  0  0  0  0  0  0
    5.3212   -3.8179   29.0607 N   0  0  0  0  0  0  0  0  0  0  0  0
    4.6619   -4.9563   28.3401 C   0  0  0  0  0  0  0  0  0  0  0  0
    4.7794   -5.0687   26.8489 C   0  0  0  0  0  0  0  0  0  0  0  0
    4.1201   -6.2072   26.1283 C   0  0  0  0  0  0  0  0  0  0  0  0
    4.2377   -6.3196   24.6371 C   0  0  0  0  0  0  0  0  0  0  0  0
    5.0145   -5.2936   23.8665 C   0  0  0  0  0  0  0  0  0  0  0  0
    5.6738   -4.1551   24.5871 C   0  0  0  0  0  0  0  0  0  0  0  0
    5.5563   -4.0427   26.0783 C   0  0  0  0  0  0  0  0  0  0  0  0
   10.5847    2.2034   22.8941 C   0  0  0  0  0  0  0  0  0  0  0  0
    9.5552    3.2938   22.9249 C   0  0  0  0  0  0  0  0  0  0  0  0
    8.5275    8.3391   23.6239 C   0  0  0  0  0  0  0  0  0  0  0  0
    9.4672    7.2524   23.1924 C   0  0  0  0  0  0  0  0  0  0  0  0
    9.0414    5.8165   23.2744 C   0  0  0  0  0  0  0  0  0  0  0  0
    9.9810    4.7298   22.8429 N   0  0  0  0  0  0  0  0  0  0  0  0
   11.3464    5.0790   22.3295 C   0  0  0  0  0  0  0  0  0  0  0  0
   12.2860    3.9923   21.8980 C   0  0  0  0  0  0  0  0  0  0  0  0
   11.7723    6.5150   22.2475 C   0  0  0  0  0  0  0  0  0  0  0  0
   10.8326    7.6017   22.6790 O   0  0  0  0  0  0  0  0  0  0  0  0
    9.0525    4.4923   23.1921 H   0  0  0  0  0  0  0  0  0  0  0  0
 32 31  1  0  0  0
 32 33  1  0  0  0
 33 34  1  0  0  0
 34 30  1  0  0  0
 30 29  1  0  0  0
 29  1  1  0  0  0
  1  2  1  0  0  0
  3  2  1  0  0  0
  3  4  1  0  0  0
  4  5  2  0  0  0
  4  6  1  0  0  0
  6 19  1  0  0  0
 19 20  2  0  0  0
 20 21  1  0  0  0
 21 22  2  0  0  0
 22 23  1  0  0  0
 23 24  2  0  0  0
 24 25  1  0  0  0
 25 26  2  0  0  0
 26 27  1  0  0  0
 27 28  2  0  0  0
  6  7  1  0  0  0
  7  8  1  0  0  0
  8  9  1  0  0  0
  3 10  1  0  0  0
 10 11  2  0  0  0
 11 12  1  0  0  0
 12 13  1  0  0  0
 12 14  2  0  0  0
 14 15  1  0  0  0
 15 16  2  0  0  0
 16 17  1  0  0  0
 17 18  2  0  0  0
 34 35  1  0  0  0
 35 36  1  0  0  0
 35 37  1  0  0  0
 37 38  1  0  0  0
 38 32  1  0  0  0
 17  1  1  0  0  0
  8  3  1  0  0  0
 16 10  1  0  0  0
 28 19  1  0  0  0
 28 23  1  0  0  0
 34 39  1  0  0  0
M  CHG 1  34   1
M  END
> <minimizedAffinity>
-9.08938

> <CNNscore>
0.2865858674

> <CNNaffinity>
6.5834975243

> <CNN_VS>
1.8867373466

> <CNNaffinity_variance>
0.1934337765

$$$$



 39 44  0  0  0  0  0  0  0  0999 V2000
   10.3565    0.7453   23.3935 N   0  0  0  0  0  0  0  0  0  0  0  0
    8.9821    0.3729   23.8652 C   0  0  0  0  0  0  0  0  0  0  0  0
    8.7983   -0.7852   24.8006 C   0  0  0  0  0  0  0  0  0  0  0  0
    8.4608   -1.9119   25.7314 C   0  0  0  0  0  0  0  0  0  0  0  0
    9.0081   -2.7978   26.3576 O   0  0  0  0  0  0  0  0  0  0  0  0
    6.9740   -1.9194   25.9303 N   0  0  0  0  0  0  0  0  0  0  0  0
    6.3927   -0.7971   25.1224 C   0  0  0  0  0  0  0  0  0  0  0  0
    7.5202   -0.0962   24.4243 C   0  0  0  0  0  0  0  0  0  0  0  0
    7.3920    1.0862   23.5102 C   0  0  0  0  0  0  0  0  0  0  0  0
    9.9890   -1.5709   25.2645 C   0  0  0  0  0  0  0  0  0  0  0  0
    9.8052   -2.7289   26.1999 C   0  0  0  0  0  0  0  0  0  0  0  0
   10.9958   -3.5146   26.6637 C   0  0  0  0  0  0  0  0  0  0  0  0
   10.8121   -4.6727   27.5992 Cl  0  0  0  0  0  0  0  0  0  0  0  0
   12.3702   -3.1422   26.1920 C   0  0  0  0  0  0  0  0  0  0  0  0
   12.5539   -1.9841   25.2566 C   0  0  0  0  0  0  0  0  0  0  0  0
   11.3633   -1.1985   24.7928 C   0  0  0  0  0  0  0  0  0  0  0  0
   11.5471   -0.0404   23.8573 C   0  0  0  0  0  0  0  0  0  0  0  0
   12.9214    0.3321   23.3857 O   0  0  0  0  0  0  0  0  0  0  0  0
    6.2039   -2.8803   26.7867 C   0  0  0  0  0  0  0  0  0  0  0  0
    6.1128   -2.6584   28.2675 C   0  0  0  0  0  0  0  0  0  0  0  0
    5.3426   -3.6193   29.1239 N   0  0  0  0  0  0  0  0  0  0  0  0
    4.6635   -4.8021   28.4996 C   0  0  0  0  0  0  0  0  0  0  0  0
    4.7547   -5.0240   27.0189 C   0  0  0  0  0  0  0  0  0  0  0  0
    4.0755   -6.2070   26.3946 C   0  0  0  0  0  0  0  0  0  0  0  0
    4.1667   -6.4288   24.9139 C   0  0  0  0  0  0  0  0  0  0  0  0
    4.9369   -5.4679   24.0574 C   0  0  0  0  0  0  0  0  0  0  0  0
    5.6159   -4.2850   24.6817 C   0  0  0  0  0  0  0  0  0  0  0  0
    5.5248   -4.0631   26.1624 C   0  0  0  0  0  0  0  0  0  0  0  0
   10.5402    1.9034   22.4580 C   0  0  0  0  0  0  0  0  0  0  0  0
   11.0196    3.2238   22.9842 C   0  0  0  0  0  0  0  0  0  0  0  0
    6.2796    5.2057   23.7618 C   0  0  0  0  0  0  0  0  0  0  0  0
    7.7225    5.3936   23.3975 C   0  0  0  0  0  0  0  0  0  0  0  0
    8.6496    4.2147   23.3730 C   0  0  0  0  0  0  0  0  0  0  0  0
   10.0925    4.4027   23.0087 N   0  0  0  0  0  0  0  0  0  0  0  0
   10.6083    5.7696   22.6689 C   0  0  0  0  0  0  0  0  0  0  0  0
   12.0512    5.9575   22.3046 C   0  0  0  0  0  0  0  0  0  0  0  0
    9.6812    6.9486   22.6934 C   0  0  0  0  0  0  0  0  0  0  0  0
    8.2383    6.7606   23.0577 O   0  0  0  0  0  0  0  0  0  0  0  0
    9.7418    3.4732   23.2398 H   0  0  0  0  0  0  0  0  0  0  0  0
 32 31  1  0  0  0
 32 33  1  0  0  0
 33 34  1  0  0  0
 34 30  1  0  0  0
 30 29  1  0  0  0
 29  1  1  0  0  0
  1  2  1  0  0  0
  3  2  1  0  0  0
  3  4  1  0  0  0
  4  5  2  0  0  0
  4  6  1  0  0  0
  6 19  1  0  0  0
 19 20  2  0  0  0
 20 21  1  0  0  0
 21 22  2  0  0  0
 22 23  1  0  0  0
 23 24  2  0  0  0
 24 25  1  0  0  0
 25 26  2  0  0  0
 26 27  1  0  0  0
 27 28  2  0  0  0
  6  7  1  0  0  0
  7  8  1  0  0  0
  8  9  1  0  0  0
  3 10  1  0  0  0
 10 11  2  0  0  0
 11 12  1  0  0  0
 12 13  1  0  0  0
 12 14  2  0  0  0
 14 15  1  0  0  0
 15 16  2  0  0  0
 16 17  1  0  0  0
 17 18  2  0  0  0
 34 35  1  0  0  0
 35 36  1  0  0  0
 35 37  1  0  0  0
 37 38  1  0  0  0
 38 32  1  0  0  0
 17  1  1  0  0  0
  8  3  1  0  0  0
 16 10  1  0  0  0
 28 19  1  0  0  0
 28 23  1  0  0  0
 34 39  1  0  0  0
M  CHG 1  34   1
M  END
> <minimizedAffinity>
-8.62545

> <CNNscore>
0.2234500945

> <CNNaffinity>
6.4868826866

> <CNN_VS>
1.4494946003

> <CNNaffinity_variance>
0.2720533609

$$$$



 39 44  0  0  0  0  0  0  0  0999 V2000
    9.6720    0.6400   23.0988 N   0  0  0  0  0  0  0  0  0  0  0  0
    8.5057   -0.2939   22.9664 C   0  0  0  0  0  0  0  0  0  0  0  0
    8.5302   -1.6268   23.6539 C   0  0  0  0  0  0  0  0  0  0  0  0
    8.4124   -2.9847   24.2802 C   0  0  0  0  0  0  0  0  0  0  0  0
    9.0454   -3.7400   24.9910 O   0  0  0  0  0  0  0  0  0  0  0  0
    7.0863   -3.5638   23.8853 N   0  0  0  0  0  0  0  0  0  0  0  0
    6.3844   -2.5638   23.0150 C   0  0  0  0  0  0  0  0  0  0  0  0
    7.2769   -1.3667   22.8720 C   0  0  0  0  0  0  0  0  0  0  0  0
    6.9698   -0.1271   22.0852 C   0  0  0  0  0  0  0  0  0  0  0  0
    9.7212   -2.0259   24.4739 C   0  0  0  0  0  0  0  0  0  0  0  0
    9.7458   -3.3588   25.1614 C   0  0  0  0  0  0  0  0  0  0  0  0
   10.9368   -3.7579   25.9813 C   0  0  0  0  0  0  0  0  0  0  0  0
   10.9614   -5.0908   26.6689 Cl  0  0  0  0  0  0  0  0  0  0  0  0
   12.1031   -2.8240   26.1138 C   0  0  0  0  0  0  0  0  0  0  0  0
   12.0786   -1.4911   25.4263 C   0  0  0  0  0  0  0  0  0  0  0  0
   10.8876   -1.0921   24.6063 C   0  0  0  0  0  0  0  0  0  0  0  0
   10.8630    0.2409   23.9188 C   0  0  0  0  0  0  0  0  0  0  0  0
   12.0294    1.1747   24.0512 O   0  0  0  0  0  0  0  0  0  0  0  0
    6.5552   -4.9071   24.2898 C   0  0  0  0  0  0  0  0  0  0  0  0
    7.1355   -6.1542   23.6915 C   0  0  0  0  0  0  0  0  0  0  0  0
    6.6044   -7.4975   24.0959 N   0  0  0  0  0  0  0  0  0  0  0  0
    5.4930   -7.5936   25.0987 C   0  0  0  0  0  0  0  0  0  0  0  0
    4.9128   -6.3465   25.6970 C   0  0  0  0  0  0  0  0  0  0  0  0
    3.8013   -6.4426   26.6999 C   0  0  0  0  0  0  0  0  0  0  0  0
    3.2211   -5.1955   27.2981 C   0  0  0  0  0  0  0  0  0  0  0  0
    3.7522   -3.8522   26.8937 C   0  0  0  0  0  0  0  0  0  0  0  0
    4.8635   -3.7561   25.8909 C   0  0  0  0  0  0  0  0  0  0  0  0
    5.4438   -5.0032   25.2926 C   0  0  0  0  0  0  0  0  0  0  0  0
    9.6474    1.9729   22.4113 C   0  0  0  0  0  0  0  0  0  0  0  0
    8.8887    3.1159   23.0180 C   0  0  0  0  0  0  0  0  0  0  0  0
    8.2350    8.2440   23.5417 C   0  0  0  0  0  0  0  0  0  0  0  0
    9.1044    7.0751   23.1845 C   0  0  0  0  0  0  0  0  0  0  0  0
    8.5618    5.6799   23.2799 C   0  0  0  0  0  0  0  0  0  0  0  0
    9.4313    4.5110   22.9226 N   0  0  0  0  0  0  0  0  0  0  0  0
   10.8433    4.7372   22.4700 C   0  0  0  0  0  0  0  0  0  0  0  0
   11.7128    3.5682   22.1128 C   0  0  0  0  0  0  0  0  0  0  0  0
   11.3860    6.1324   22.3746 C   0  0  0  0  0  0  0  0  0  0  0  0
   10.5165    7.3013   22.7319 O   0  0  0  0  0  0  0  0  0  0  0  0
    8.4711    4.3572   23.2304 H   0  0  0  0  0  0  0  0  0  0  0  0
 32 31  1  0  0  0
 32 33  1  0  0  0
 33 34  1  0  0  0
 34 30  1  0  0  0
 30 29  1  0  0  0
 29  1  1  0  0  0
  1  2  1  0  0  0
  3  2  1  0  0  0
  3  4  1  0  0  0
  4  5  2  0  0  0
  4  6  1  0  0  0
  6 19  1  0  0  0
 19 20  2  0  0  0
 20 21  1  0  0  0
 21 22  2  0  0  0
 22 23  1  0  0  0
 23 24  2  0  0  0
 24 25  1  0  0  0
 25 26  2  0  0  0
 26 27  1  0  0  0
 27 28  2  0  0  0
  6  7  1  0  0  0
  7  8  1  0  0  0
  8  9  1  0  0  0
  3 10  1  0  0  0
 10 11  2  0  0  0
 11 12  1  0  0  0
 12 13  1  0  0  0
 12 14  2  0  0  0
 14 15  1  0  0  0
 15 16  2  0  0  0
 16 17  1  0  0  0
 17 18  2  0  0  0
 34 35  1  0  0  0
 35 36  1  0  0  0
 35 37  1  0  0  0
 37 38  1  0  0  0
 38 32  1  0  0  0
 17  1  1  0  0  0
  8  3  1  0  0  0
 16 10  1  0  0  0
 28 19  1  0  0  0
 28 23  1  0  0  0
 34 39  1  0  0  0
M  CHG 1  34   1
M  END
> <minimizedAffinity>
-9.26979

> <CNNscore>
0.2072457969

> <CNNaffinity>
6.4925637245

> <CNN_VS>
1.3455564976

> <CNNaffinity_variance>
0.1952541173

$$$$



 39 44  0  0  0  0  0  0  0  0999 V2000
    9.7675    0.6513   22.8437 N   0  0  0  0  0  0  0  0  0  0  0  0
    8.6274   -0.3107   22.6863 C   0  0  0  0  0  0  0  0  0  0  0  0
    8.6269   -1.6038   23.4463 C   0  0  0  0  0  0  0  0  0  0  0  0
    8.4887   -2.9280   24.1373 C   0  0  0  0  0  0  0  0  0  0  0  0
    9.0845   -3.6315   24.9288 O   0  0  0  0  0  0  0  0  0  0  0  0
    7.2012   -3.5531   23.6884 N   0  0  0  0  0  0  0  0  0  0  0  0
    6.5436   -2.6153   22.7199 C   0  0  0  0  0  0  0  0  0  0  0  0
    7.4247   -1.4106   22.5703 C   0  0  0  0  0  0  0  0  0  0  0  0
    7.1515   -0.2214   21.6979 C   0  0  0  0  0  0  0  0  0  0  0  0
    9.7665   -1.9351   24.3638 C   0  0  0  0  0  0  0  0  0  0  0  0
    9.7659   -3.2282   25.1238 C   0  0  0  0  0  0  0  0  0  0  0  0
   10.9055   -3.5594   26.0412 C   0  0  0  0  0  0  0  0  0  0  0  0
   10.9050   -4.8526   26.8013 Cl  0  0  0  0  0  0  0  0  0  0  0  0
   12.0456   -2.5974   26.1986 C   0  0  0  0  0  0  0  0  0  0  0  0
   12.0461   -1.3043   25.4386 C   0  0  0  0  0  0  0  0  0  0  0  0
   10.9066   -0.9731   24.5212 C   0  0  0  0  0  0  0  0  0  0  0  0
   10.9070    0.3202   23.7611 C   0  0  0  0  0  0  0  0  0  0  0  0
   12.0471    1.2821   23.9185 O   0  0  0  0  0  0  0  0  0  0  0  0
    6.6655   -4.8826   24.1303 C   0  0  0  0  0  0  0  0  0  0  0  0
    7.2632   -6.1487   23.5920 C   0  0  0  0  0  0  0  0  0  0  0  0
    6.7275   -7.4782   24.0339 N   0  0  0  0  0  0  0  0  0  0  0  0
    5.5939   -7.5417   25.0142 C   0  0  0  0  0  0  0  0  0  0  0  0
    4.9961   -6.2756   25.5526 C   0  0  0  0  0  0  0  0  0  0  0  0
    3.8625   -6.3391   26.5330 C   0  0  0  0  0  0  0  0  0  0  0  0
    3.2648   -5.0730   27.0712 C   0  0  0  0  0  0  0  0  0  0  0  0
    3.8006   -3.7435   26.6293 C   0  0  0  0  0  0  0  0  0  0  0  0
    4.9341   -3.6800   25.6490 C   0  0  0  0  0  0  0  0  0  0  0  0
    5.5319   -4.9461   25.1106 C   0  0  0  0  0  0  0  0  0  0  0  0
    9.7680    1.9446   22.0836 C   0  0  0  0  0  0  0  0  0  0  0  0
   10.8418    2.9615   22.3344 C   0  0  0  0  0  0  0  0  0  0  0  0
   12.0521    7.9997   21.9465 C   0  0  0  0  0  0  0  0  0  0  0  0
   11.0834    6.9227   22.3357 C   0  0  0  0  0  0  0  0  0  0  0  0
   11.4469    5.4806   22.1404 C   0  0  0  0  0  0  0  0  0  0  0  0
   10.4782    4.4035   22.5296 N   0  0  0  0  0  0  0  0  0  0  0  0
    9.1458    4.7686   23.1140 C   0  0  0  0  0  0  0  0  0  0  0  0
    8.1771    3.6915   23.5032 C   0  0  0  0  0  0  0  0  0  0  0  0
    8.7822    6.2107   23.3093 C   0  0  0  0  0  0  0  0  0  0  0  0
    9.7510    7.2878   22.9201 O   0  0  0  0  0  0  0  0  0  0  0  0
   11.3842    4.1553   22.1322 H   0  0  0  0  0  0  0  0  0  0  0  0
 32 31  1  0  0  0
 32 33  1  0  0  0
 33 34  1  0  0  0
 34 30  1  0  0  0
 30 29  1  0  0  0
 29  1  1  0  0  0
  1  2  1  0  0  0
  3  2  1  0  0  0
  3  4  1  0  0  0
  4  5  2  0  0  0
  4  6  1  0  0  0
  6 19  1  0  0  0
 19 20  2  0  0  0
 20 21  1  0  0  0
 21 22  2  0  0  0
 22 23  1  0  0  0
 23 24  2  0  0  0
 24 25  1  0  0  0
 25 26  2  0  0  0
 26 27  1  0  0  0
 27 28  2  0  0  0
  6  7  1  0  0  0
  7  8  1  0  0  0
  8  9  1  0  0  0
  3 10  1  0  0  0
 10 11  2  0  0  0
 11 12  1  0  0  0
 12 13  1  0  0  0
 12 14  2  0  0  0
 14 15  1  0  0  0
 15 16  2  0  0  0
 16 17  1  0  0  0
 17 18  2  0  0  0
 34 35  1  0  0  0
 35 36  1  0  0  0
 35 37  1  0  0  0
 37 38  1  0  0  0
 38 32  1  0  0  0
 17  1  1  0  0  0
  8  3  1  0  0  0
 16 10  1  0  0  0
 28 19  1  0  0  0
 28 23  1  0  0  0
 34 39  1  0  0  0
M  CHG 1  34   1
M  END
> <minimizedAffinity>
-9.48795

> <CNNscore>
0.1886179000

> <CNNaffinity>
6.4755582809

> <CNN_VS>
1.2214062214

> <CNNaffinity_variance>
0.2208957225

$$$$



 39 44  0  0  0  0  0  0  0  0999 V2000
    5.8429    2.1962   21.8864 N   0  0  0  0  0  0  0  0  0  0  0  0
    7.2029    2.1935   22.5193 C   0  0  0  0  0  0  0  0  0  0  0  0
    7.8700    0.8934   22.8578 C   0  0  0  0  0  0  0  0  0  0  0  0
    8.6574   -0.3214   23.2505 C   0  0  0  0  0  0  0  0  0  0  0  0
    8.5686   -1.5331   23.2354 O   0  0  0  0  0  0  0  0  0  0  0  0
    9.9553    0.1394   23.8445 N   0  0  0  0  0  0  0  0  0  0  0  0
    9.9702    1.6391   23.8190 C   0  0  0  0  0  0  0  0  0  0  0  0
    8.6814    2.1051   23.2092 C   0  0  0  0  0  0  0  0  0  0  0  0
    8.2753    3.5323   22.9893 C   0  0  0  0  0  0  0  0  0  0  0  0
    7.1772   -0.4041   22.5635 C   0  0  0  0  0  0  0  0  0  0  0  0
    7.8443   -1.7042   22.9020 C   0  0  0  0  0  0  0  0  0  0  0  0
    7.1515   -3.0016   22.6077 C   0  0  0  0  0  0  0  0  0  0  0  0
    7.8186   -4.3017   22.9462 Cl  0  0  0  0  0  0  0  0  0  0  0  0
    5.7915   -2.9989   21.9748 C   0  0  0  0  0  0  0  0  0  0  0  0
    5.1244   -1.6988   21.6362 C   0  0  0  0  0  0  0  0  0  0  0  0
    5.8172   -0.4014   21.9306 C   0  0  0  0  0  0  0  0  0  0  0  0
    5.1501    0.8988   21.5920 C   0  0  0  0  0  0  0  0  0  0  0  0
    3.7902    0.9015   20.9591 O   0  0  0  0  0  0  0  0  0  0  0  0
   11.0468   -0.7443   24.3715 C   0  0  0  0  0  0  0  0  0  0  0  0
   12.4575   -0.5580   23.8970 C   0  0  0  0  0  0  0  0  0  0  0  0
   13.5490   -1.4417   24.4240 N   0  0  0  0  0  0  0  0  0  0  0  0
   13.2297   -2.5117   25.4255 C   0  0  0  0  0  0  0  0  0  0  0  0
   11.8190   -2.6980   25.9000 C   0  0  0  0  0  0  0  0  0  0  0  0
   11.4998   -3.7681   26.9016 C   0  0  0  0  0  0  0  0  0  0  0  0
   10.0890   -3.9543   27.3761 C   0  0  0  0  0  0  0  0  0  0  0  0
    8.9975   -3.0706   26.8491 C   0  0  0  0  0  0  0  0  0  0  0  0
    9.3168   -2.0006   25.8476 C   0  0  0  0  0  0  0  0  0  0  0  0
   10.7275   -1.8143   25.3730 C   0  0  0  0  0  0  0  0  0  0  0  0
    5.1758    3.4964   21.5478 C   0  0  0  0  0  0  0  0  0  0  0  0
    4.0416    3.5242   20.5667 C   0  0  0  0  0  0  0  0  0  0  0  0
    2.3470    8.0639   22.4426 C   0  0  0  0  0  0  0  0  0  0  0  0
    2.1058    6.8165   21.6454 C   0  0  0  0  0  0  0  0  0  0  0  0
    3.1943    5.7941   21.5046 C   0  0  0  0  0  0  0  0  0  0  0  0
    2.9531    4.5466   20.7074 N   0  0  0  0  0  0  0  0  0  0  0  0
    1.6233    4.3215   20.0509 C   0  0  0  0  0  0  0  0  0  0  0  0
    1.3821    3.0740   19.2536 C   0  0  0  0  0  0  0  0  0  0  0  0
    0.5347    5.3439   20.1916 C   0  0  0  0  0  0  0  0  0  0  0  0
    0.7760    6.5914   20.9888 O   0  0  0  0  0  0  0  0  0  0  0  0
    3.8573    4.6997   21.1538 H   0  0  0  0  0  0  0  0  0  0  0  0
 32 31  1  0  0  0
 32 33  1  0  0  0
 33 34  1  0  0  0
 34 30  1  0  0  0
 30 29  1  0  0  0
 29  1  1  0  0  0
  1  2  1  0  0  0
  3  2  1  0  0  0
  3  4  1  0  0  0
  4  5  2  0  0  0
  4  6  1  0  0  0
  6 19  1  0  0  0
 19 20  2  0  0  0
 20 21  1  0  0  0
 21 22  2  0  0  0
 22 23  1  0  0  0
 23 24  2  0  0  0
 24 25  1  0  0  0
 25 26  2  0  0  0
 26 27  1  0  0  0
 27 28  2  0  0  0
  6  7  1  0  0  0
  7  8  1  0  0  0
  8  9  1  0  0  0
  3 10  1  0  0  0
 10 11  2  0  0  0
 11 12  1  0  0  0
 12 13  1  0  0  0
 12 14  2  0  0  0
 14 15  1  0  0  0
 15 16  2  0  0  0
 16 17  1  0  0  0
 17 18  2  0  0  0
 34 35  1  0  0  0
 35 36  1  0  0  0
 35 37  1  0  0  0
 37 38  1  0  0  0
 38 32  1  0  0  0
 17  1  1  0  0  0
  8  3  1  0  0  0
 16 10  1  0  0  0
 28 19  1  0  0  0
 28 23  1  0  0  0
 34 39  1  0  0  0
M  CHG 1  34   1
M  END
> <minimizedAffinity>
-8.23907

> <CNNscore>
0.1545723081

> <CNNaffinity>
6.3771448135

> <CNN_VS>
0.9857299924

> <CNNaffinity_variance>
0.0637031570

$$$$



 39 44  0  0  0  0  0  0  0  0999 V2000
    9.3248    0.6126   22.7317 N   0  0  0  0  0  0  0  0  0  0  0  0
    8.2382   -0.4138   22.6059 C   0  0  0  0  0  0  0  0  0  0  0  0
    8.3368   -1.7066   23.3601 C   0  0  0  0  0  0  0  0  0  0  0  0
    8.2977   -3.0383   24.0494 C   0  0  0  0  0  0  0  0  0  0  0  0
    8.9580   -3.7078   24.8190 O   0  0  0  0  0  0  0  0  0  0  0  0
    7.0353   -3.7363   23.6382 N   0  0  0  0  0  0  0  0  0  0  0  0
    6.2941   -2.8360   22.6947 C   0  0  0  0  0  0  0  0  0  0  0  0
    7.0985   -1.5816   22.5228 C   0  0  0  0  0  0  0  0  0  0  0  0
    6.7293   -0.4083   21.6644 C   0  0  0  0  0  0  0  0  0  0  0  0
    9.5220   -1.9731   24.2401 C   0  0  0  0  0  0  0  0  0  0  0  0
    9.6205   -3.2659   24.9943 C   0  0  0  0  0  0  0  0  0  0  0  0
   10.8057   -3.5323   25.8743 C   0  0  0  0  0  0  0  0  0  0  0  0
   10.9043   -4.8252   26.6285 Cl  0  0  0  0  0  0  0  0  0  0  0  0
   11.8922   -2.5059   26.0001 C   0  0  0  0  0  0  0  0  0  0  0  0
   11.7937   -1.2131   25.2459 C   0  0  0  0  0  0  0  0  0  0  0  0
   10.6085   -0.9467   24.3659 C   0  0  0  0  0  0  0  0  0  0  0  0
   10.5099    0.3462   23.6117 C   0  0  0  0  0  0  0  0  0  0  0  0
   11.5965    1.3727   23.7375 O   0  0  0  0  0  0  0  0  0  0  0  0
    6.5919   -5.0958   24.0910 C   0  0  0  0  0  0  0  0  0  0  0  0
    7.2674   -6.3226   23.5537 C   0  0  0  0  0  0  0  0  0  0  0  0
    6.8241   -7.6821   24.0065 N   0  0  0  0  0  0  0  0  0  0  0  0
    5.7052   -7.8149   24.9967 C   0  0  0  0  0  0  0  0  0  0  0  0
    5.0296   -6.5881   25.5340 C   0  0  0  0  0  0  0  0  0  0  0  0
    3.9106   -6.7209   26.5242 C   0  0  0  0  0  0  0  0  0  0  0  0
    3.2352   -5.4941   27.0614 C   0  0  0  0  0  0  0  0  0  0  0  0
    3.6785   -4.1346   26.6086 C   0  0  0  0  0  0  0  0  0  0  0  0
    4.7974   -4.0018   25.6185 C   0  0  0  0  0  0  0  0  0  0  0  0
    5.4730   -5.2286   25.0812 C   0  0  0  0  0  0  0  0  0  0  0  0
    9.2261    1.9055   21.9775 C   0  0  0  0  0  0  0  0  0  0  0  0
    8.3857    3.0254   22.5155 C   0  0  0  0  0  0  0  0  0  0  0  0
    6.5468    1.7608   27.2079 C   0  0  0  0  0  0  0  0  0  0  0  0
    6.3069    2.0936   25.7651 C   0  0  0  0  0  0  0  0  0  0  0  0
    7.4663    2.3931   24.8617 C   0  0  0  0  0  0  0  0  0  0  0  0
    7.2264    2.7259   23.4189 N   0  0  0  0  0  0  0  0  0  0  0  0
    5.8271    2.7592   22.8795 C   0  0  0  0  0  0  0  0  0  0  0  0
    5.5872    3.0921   21.4367 C   0  0  0  0  0  0  0  0  0  0  0  0
    4.6677    2.4597   23.7830 C   0  0  0  0  0  0  0  0  0  0  0  0
    4.9076    2.1269   25.2258 O   0  0  0  0  0  0  0  0  0  0  0  0
    8.1779    2.7033   23.7857 H   0  0  0  0  0  0  0  0  0  0  0  0
 32 31  1  0  0  0
 32 33  1  0  0  0
 33 34  1  0  0  0
 34 30  1  0  0  0
 30 29  1  0  0  0
 29  1  1  0  0  0
  1  2  1  0  0  0
  3  2  1  0  0  0
  3  4  1  0  0  0
  4  5  2  0  0  0
  4  6  1  0  0  0
  6 19  1  0  0  0
 19 20  2  0  0  0
 20 21  1  0  0  0
 21 22  2  0  0  0
 22 23  1  0  0  0
 23 24  2  0  0  0
 24 25  1  0  0  0
 25 26  2  0  0  0
 26 27  1  0  0  0
 27 28  2  0  0  0
  6  7  1  0  0  0
  7  8  1  0  0  0
  8  9  1  0  0  0
  3 10  1  0  0  0
 10 11  2  0  0  0
 11 12  1  0  0  0
 12 13  1  0  0  0
 12 14  2  0  0  0
 14 15  1  0  0  0
 15 16  2  0  0  0
 16 17  1  0  0  0
 17 18  2  0  0  0
 34 35  1  0  0  0
 35 36  1  0  0  0
 35 37  1  0  0  0
 37 38  1  0  0  0
 38 32  1  0  0  0
 17  1  1  0  0  0
  8  3  1  0  0  0
 16 10  1  0  0  0
 28 19  1  0  0  0
 28 23  1  0  0  0
 34 39  1  0  0  0
M  CHG 1  34   1
M  END
> <minimizedAffinity>
-8.20436

> <CNNscore>
0.1489629596

> <CNNaffinity>
6.3452110291

> <CNN_VS>
0.9452013969

> <CNNaffinity_variance>
0.5004665256

$$$$



 39 44  0  0  0  0  0  0  0  0999 V2000
    2.7232    3.7397   21.4037 N   0  0  0  0  0  0  0  0  0  0  0  0
    3.7288    3.3745   22.4551 C   0  0  0  0  0  0  0  0  0  0  0  0
    4.8472    2.4302   22.1274 C   0  0  0  0  0  0  0  0  0  0  0  0
    6.0135    1.5041   21.9482 C   0  0  0  0  0  0  0  0  0  0  0  0
    6.5312    0.8140   21.0925 O   0  0  0  0  0  0  0  0  0  0  0  0
    6.7501    1.4285   23.2527 N   0  0  0  0  0  0  0  0  0  0  0  0
    6.0392    2.3079   24.2381 C   0  0  0  0  0  0  0  0  0  0  0  0
    4.8631    2.9270   23.5427 C   0  0  0  0  0  0  0  0  0  0  0  0
    3.8762    3.8763   24.1550 C   0  0  0  0  0  0  0  0  0  0  0  0
    4.9602    1.8512   20.7482 C   0  0  0  0  0  0  0  0  0  0  0  0
    6.0787    0.9070   20.4206 C   0  0  0  0  0  0  0  0  0  0  0  0
    6.1916    0.3280   19.0415 C   0  0  0  0  0  0  0  0  0  0  0  0
    7.3101   -0.6163   18.7137 Cl  0  0  0  0  0  0  0  0  0  0  0  0
    5.1861    0.6932   17.9900 C   0  0  0  0  0  0  0  0  0  0  0  0
    4.0676    1.6374   18.3177 C   0  0  0  0  0  0  0  0  0  0  0  0
    3.9547    2.2164   19.6968 C   0  0  0  0  0  0  0  0  0  0  0  0
    2.8362    3.1607   20.0246 C   0  0  0  0  0  0  0  0  0  0  0  0
    1.8306    3.5259   18.9731 O   0  0  0  0  0  0  0  0  0  0  0  0
    7.9815    0.6160   23.5240 C   0  0  0  0  0  0  0  0  0  0  0  0
    7.8555   -0.7989   24.0060 C   0  0  0  0  0  0  0  0  0  0  0  0
    9.0868   -1.6113   24.2773 N   0  0  0  0  0  0  0  0  0  0  0  0
   10.4443   -1.0088   24.0668 C   0  0  0  0  0  0  0  0  0  0  0  0
   10.5703    0.4061   23.5848 C   0  0  0  0  0  0  0  0  0  0  0  0
   11.9279    1.0085   23.3742 C   0  0  0  0  0  0  0  0  0  0  0  0
   12.0538    2.4234   22.8923 C   0  0  0  0  0  0  0  0  0  0  0  0
   10.8224    3.2358   22.6209 C   0  0  0  0  0  0  0  0  0  0  0  0
    9.4650    2.6334   22.8315 C   0  0  0  0  0  0  0  0  0  0  0  0
    9.3389    1.2185   23.3135 C   0  0  0  0  0  0  0  0  0  0  0  0
    1.6047    4.6840   21.7314 C   0  0  0  0  0  0  0  0  0  0  0  0
    1.6096    6.0755   21.1714 C   0  0  0  0  0  0  0  0  0  0  0  0
   -2.3073    6.1974   17.7594 C   0  0  0  0  0  0  0  0  0  0  0  0
   -1.6258    6.7521   18.9750 C   0  0  0  0  0  0  0  0  0  0  0  0
   -0.3489    6.1365   19.4654 C   0  0  0  0  0  0  0  0  0  0  0  0
    0.3327    6.6911   20.6810 N   0  0  0  0  0  0  0  0  0  0  0  0
   -0.2626    7.8614   21.4063 C   0  0  0  0  0  0  0  0  0  0  0  0
    0.4190    8.4160   22.6220 C   0  0  0  0  0  0  0  0  0  0  0  0
   -1.5396    8.4770   20.9159 C   0  0  0  0  0  0  0  0  0  0  0  0
   -2.2211    7.9224   19.7003 O   0  0  0  0  0  0  0  0  0  0  0  0
    0.7375    5.8953   20.1879 H   0  0  0  0  0  0  0  0  0  0  0  0
 32 31  1  0  0  0
 32 33  1  0  0  0
 33 34  1  0  0  0
 34 30  1  0  0  0
 30 29  1  0  0  0
 29  1  1  0  0  0
  1  2  1  0  0  0
  3  2  1  0  0  0
  3  4  1  0  0  0
  4  5  2  0  0  0
  4  6  1  0  0  0
  6 19  1  0  0  0
 19 20  2  0  0  0
 20 21  1  0  0  0
 21 22  2  0  0  0
 22 23  1  0  0  0
 23 24  2  0  0  0
 24 25  1  0  0  0
 25 26  2  0  0  0
 26 27  1  0  0  0
 27 28  2  0  0  0
  6  7  1  0  0  0
  7  8  1  0  0  0
  8  9  1  0  0  0
  3 10  1  0  0  0
 10 11  2  0  0  0
 11 12  1  0  0  0
 12 13  1  0  0  0
 12 14  2  0  0  0
 14 15  1  0  0  0
 15 16  2  0  0  0
 16 17  1  0  0  0
 17 18  2  0  0  0
 34 35  1  0  0  0
 35 36  1  0  0  0
 35 37  1  0  0  0
 37 38  1  0  0  0
 38 32  1  0  0  0
 17  1  1  0  0  0
  8  3  1  0  0  0
 16 10  1  0  0  0
 28 19  1  0  0  0
 28 23  1  0  0  0
 34 39  1  0  0  0
M  CHG 1  34   1
M  END
> <minimizedAffinity>
-8.82461

> <CNNscore>
0.1455521733

> <CNNaffinity>
6.0297632217

> <CNN_VS>
0.8776451349

> <CNNaffinity_variance>
0.0886826143

$$$$



 39 44  0  0  0  0  0  0  0  0999 V2000
    9.3235    0.7507   22.8048 N   0  0  0  0  0  0  0  0  0  0  0  0
    8.2159   -0.2549   22.6954 C   0  0  0  0  0  0  0  0  0  0  0  0
    8.3126   -1.5599   23.4285 C   0  0  0  0  0  0  0  0  0  0  0  0
    8.2693   -2.9004   24.1002 C   0  0  0  0  0  0  0  0  0  0  0  0
    8.9388   -3.5922   24.8415 O   0  0  0  0  0  0  0  0  0  0  0  0
    6.9838   -3.5705   23.7151 N   0  0  0  0  0  0  0  0  0  0  0  0
    6.2326   -2.6442   22.8053 C   0  0  0  0  0  0  0  0  0  0  0  0
    7.0539   -1.4015   22.6283 C   0  0  0  0  0  0  0  0  0  0  0  0
    6.6817   -0.2098   21.7969 C   0  0  0  0  0  0  0  0  0  0  0  0
    9.5170   -1.8594   24.2711 C   0  0  0  0  0  0  0  0  0  0  0  0
    9.6137   -3.1644   25.0042 C   0  0  0  0  0  0  0  0  0  0  0  0
   10.8181   -3.4638   25.8467 C   0  0  0  0  0  0  0  0  0  0  0  0
   10.9148   -4.7689   26.5799 Cl  0  0  0  0  0  0  0  0  0  0  0  0
   11.9257   -2.4582   25.9561 C   0  0  0  0  0  0  0  0  0  0  0  0
   11.8290   -1.1532   25.2230 C   0  0  0  0  0  0  0  0  0  0  0  0
   10.6246   -0.8538   24.3805 C   0  0  0  0  0  0  0  0  0  0  0  0
   10.5279    0.4513   23.6473 C   0  0  0  0  0  0  0  0  0  0  0  0
   11.6355    1.4569   23.7567 O   0  0  0  0  0  0  0  0  0  0  0  0
    6.5292   -4.9286   24.1613 C   0  0  0  0  0  0  0  0  0  0  0  0
    7.1441   -6.1592   23.5635 C   0  0  0  0  0  0  0  0  0  0  0  0
    6.6896   -7.5173   24.0097 N   0  0  0  0  0  0  0  0  0  0  0  0
    5.6202   -7.6446   25.0538 C   0  0  0  0  0  0  0  0  0  0  0  0
    5.0053   -6.4140   25.6516 C   0  0  0  0  0  0  0  0  0  0  0  0
    3.9358   -6.5414   26.6957 C   0  0  0  0  0  0  0  0  0  0  0  0
    3.3210   -5.3107   27.2935 C   0  0  0  0  0  0  0  0  0  0  0  0
    3.7755   -3.9526   26.8472 C   0  0  0  0  0  0  0  0  0  0  0  0
    4.8449   -3.8253   25.8032 C   0  0  0  0  0  0  0  0  0  0  0  0
    5.4598   -5.0559   25.2054 C   0  0  0  0  0  0  0  0  0  0  0  0
    9.2268    2.0558   22.0716 C   0  0  0  0  0  0  0  0  0  0  0  0
    8.8540    3.3060   22.8119 C   0  0  0  0  0  0  0  0  0  0  0  0
    4.1426    3.3375   20.6207 C   0  0  0  0  0  0  0  0  0  0  0  0
    5.2286    4.0444   21.3762 C   0  0  0  0  0  0  0  0  0  0  0  0
    6.4983    3.3218   21.7163 C   0  0  0  0  0  0  0  0  0  0  0  0
    7.5844    4.0287   22.4717 N   0  0  0  0  0  0  0  0  0  0  0  0
    7.4008    5.4583   22.8871 C   0  0  0  0  0  0  0  0  0  0  0  0
    8.4868    6.1652   23.6426 C   0  0  0  0  0  0  0  0  0  0  0  0
    6.1311    6.1810   22.5470 C   0  0  0  0  0  0  0  0  0  0  0  0
    5.0450    5.4741   21.7915 O   0  0  0  0  0  0  0  0  0  0  0  0
    7.7092    3.0566   22.1893 H   0  0  0  0  0  0  0  0  0  0  0  0
 32 31  1  0  0  0
 32 33  1  0  0  0
 33 34  1  0  0  0
 34 30  1  0  0  0
 30 29  1  0  0  0
 29  1  1  0  0  0
  1  2  1  0  0  0
  3  2  1  0  0  0
  3  4  1  0  0  0
  4  5  2  0  0  0
  4  6  1  0  0  0
  6 19  1  0  0  0
 19 20  2  0  0  0
 20 21  1  0  0  0
 21 22  2  0  0  0
 22 23  1  0  0  0
 23 24  2  0  0  0
 24 25  1  0  0  0
 25 26  2  0  0  0
 26 27  1  0  0  0
 27 28  2  0  0  0
  6  7  1  0  0  0
  7  8  1  0  0  0
  8  9  1  0  0  0
  3 10  1  0  0  0
 10 11  2  0  0  0
 11 12  1  0  0  0
 12 13  1  0  0  0
 12 14  2  0  0  0
 14 15  1  0  0  0
 15 16  2  0  0  0
 16 17  1  0  0  0
 17 18  2  0  0  0
 34 35  1  0  0  0
 35 36  1  0  0  0
 35 37  1  0  0  0
 37 38  1  0  0  0
 38 32  1  0  0  0
 17  1  1  0  0  0
  8  3  1  0  0  0
 16 10  1  0  0  0
 28 19  1  0  0  0
 28 23  1  0  0  0
 34 39  1  0  0  0
M  CHG 1  34   1
M  END
> <minimizedAffinity>
-8.86205

> <CNNscore>
0.1275073141

> <CNNaffinity>
6.3395018578

> <CNN_VS>
0.8083328605

> <CNNaffinity_variance>
0.2618887424

$$$$
