


 28 31  0  0  0  0  0  0  0  0999 V2000
   -7.8724   -3.7744  -23.7981 C   0  0  0  0  0  0  0  0  0  0  0  0
   -8.5662   -4.6283  -24.8177 C   0  0  0  0  0  0  0  0  0  0  0  0
   -8.3285   -6.1091  -24.8427 C   0  0  0  0  0  0  0  0  0  0  0  0
   -9.0223   -6.9630  -25.8622 C   0  0  0  0  0  0  0  0  0  0  0  0
   -7.3970   -6.7361  -23.8480 C   0  0  0  0  0  0  0  0  0  0  0  0
   -6.7032   -5.8822  -22.8285 C   0  0  0  0  0  0  0  0  0  0  0  0
   -6.9409   -4.4013  -22.8035 N   0  0  0  0  0  0  0  0  0  0  0  0
   -6.2471   -3.5475  -21.7840 C   0  0  0  0  0  0  0  0  0  0  0  0
   -5.3156   -4.1745  -20.7893 O   0  0  0  0  0  0  0  0  0  0  0  0
   -9.2991   -1.7369  -23.0477 C   0  0  0  0  0  0  0  0  0  0  0  0
   -9.5368   -0.2561  -23.0228 C   0  0  0  0  0  0  0  0  0  0  0  0
   -8.5854    0.6681  -23.7234 C   0  0  0  0  0  0  0  0  0  0  0  0
   -7.3964    0.1115  -24.4488 C   0  0  0  0  0  0  0  0  0  0  0  0
   -7.1587   -1.3693  -24.4737 C   0  0  0  0  0  0  0  0  0  0  0  0
   -8.1101   -2.2935  -23.7732 C   0  0  0  0  0  0  0  0  0  0  0  0
  -11.7001   -2.6779  -22.7321 C   0  0  0  0  0  0  0  0  0  0  0  0
  -10.2505   -2.6611  -22.3472 O   0  0  0  0  0  0  0  0  0  0  0  0
   -6.4848   -2.0667  -21.7590 C   0  0  0  0  0  0  0  0  0  0  0  0
   -6.0309   -1.2539  -20.5827 C   0  0  0  0  0  0  0  0  0  0  0  0
   -6.7199   -1.4015  -19.2585 C   0  0  0  0  0  0  0  0  0  0  0  0
   -6.2661   -0.5888  -18.0823 N   0  0  0  0  0  0  0  0  0  0  0  0
   -5.1233    0.3715  -18.2303 C   0  0  0  0  0  0  0  0  0  0  0  0
   -4.4343    0.5191  -19.5545 C   0  0  0  0  0  0  0  0  0  0  0  0
   -3.2916    1.4794  -19.7025 C   0  0  0  0  0  0  0  0  0  0  0  0
   -2.6027    1.6270  -21.0267 C   0  0  0  0  0  0  0  0  0  0  0  0
   -3.0565    0.8143  -22.2029 C   0  0  0  0  0  0  0  0  0  0  0  0
   -4.1992   -0.1460  -22.0550 C   0  0  0  0  0  0  0  0  0  0  0  0
   -4.8881   -0.2936  -20.7308 C   0  0  0  0  0  0  0  0  0  0  0  0
 16 17  1  0  0  0
 17 10  1  0  0  0
 10 11  2  0  0  0
 11 12  1  0  0  0
 12 13  2  0  0  0
 13 14  1  0  0  0
 14 15  2  0  0  0
  1 15  1  0  0  0
  1  2  1  0  0  0
  2  3  1  0  0  0
  3  4  1  0  0  0
  3  5  1  0  0  0
  5  6  1  0  0  0
  6  7  1  0  0  0
  7  8  1  0  0  0
  8  9  2  0  0  0
  8 18  1  0  0  0
 18 19  1  0  0  0
 19 20  2  0  0  0
 20 21  1  0  0  0
 21 22  2  0  0  0
 22 23  1  0  0  0
 23 24  2  0  0  0
 24 25  1  0  0  0
 25 26  2  0  0  0
 26 27  1  0  0  0
 27 28  2  0  0  0
 15 10  1  0  0  0
  7  1  1  0  0  0
 28 19  1  0  0  0
 28 23  1  0  0  0
M  END
> <minimizedAffinity>
-8.01442

> <CNNscore>
0.6468541026

> <CNNaffinity>
6.0364480019

> <CNN_VS>
3.9047012329

> <CNNaffinity_variance>
0.2368059456

$$$$



 28 31  0  0  0  0  0  0  0  0999 V2000
   -7.9616   -3.7408  -23.7084 C   0  0  0  0  0  0  0  0  0  0  0  0
   -8.6677   -4.6037  -24.7118 C   0  0  0  0  0  0  0  0  0  0  0  0
   -8.3460   -6.0660  -24.8019 C   0  0  0  0  0  0  0  0  0  0  0  0
   -9.0522   -6.9288  -25.8053 C   0  0  0  0  0  0  0  0  0  0  0  0
   -7.3182   -6.6655  -23.8885 C   0  0  0  0  0  0  0  0  0  0  0  0
   -6.6121   -5.8027  -22.8850 C   0  0  0  0  0  0  0  0  0  0  0  0
   -6.9338   -4.3403  -22.7950 N   0  0  0  0  0  0  0  0  0  0  0  0
   -6.2277   -3.4775  -21.7915 C   0  0  0  0  0  0  0  0  0  0  0  0
   -5.1999   -4.0770  -20.8781 O   0  0  0  0  0  0  0  0  0  0  0  0
   -7.6050   -1.3035  -24.5345 C   0  0  0  0  0  0  0  0  0  0  0  0
   -7.9267    0.1588  -24.4444 C   0  0  0  0  0  0  0  0  0  0  0  0
   -8.9267    0.6461  -23.4382 C   0  0  0  0  0  0  0  0  0  0  0  0
   -9.6050   -0.3288  -22.5220 C   0  0  0  0  0  0  0  0  0  0  0  0
   -9.2833   -1.7911  -22.6121 C   0  0  0  0  0  0  0  0  0  0  0  0
   -8.2833   -2.2785  -23.6183 C   0  0  0  0  0  0  0  0  0  0  0  0
   -5.1394   -1.7441  -25.2248 C   0  0  0  0  0  0  0  0  0  0  0  0
   -6.6050   -1.7909  -25.5407 O   0  0  0  0  0  0  0  0  0  0  0  0
   -6.5494   -2.0152  -21.7015 C   0  0  0  0  0  0  0  0  0  0  0  0
   -6.0582   -1.2096  -20.5353 C   0  0  0  0  0  0  0  0  0  0  0  0
   -6.7238   -1.3433  -19.1978 C   0  0  0  0  0  0  0  0  0  0  0  0
   -6.2326   -0.5378  -18.0317 N   0  0  0  0  0  0  0  0  0  0  0  0
   -5.0757    0.4015  -18.2031 C   0  0  0  0  0  0  0  0  0  0  0  0
   -4.4100    0.5353  -19.5407 C   0  0  0  0  0  0  0  0  0  0  0  0
   -3.2532    1.4745  -19.7121 C   0  0  0  0  0  0  0  0  0  0  0  0
   -2.5876    1.6083  -21.0496 C   0  0  0  0  0  0  0  0  0  0  0  0
   -3.0788    0.8027  -22.2157 C   0  0  0  0  0  0  0  0  0  0  0  0
   -4.2356   -0.1366  -22.0443 C   0  0  0  0  0  0  0  0  0  0  0  0
   -4.9013   -0.2703  -20.7068 C   0  0  0  0  0  0  0  0  0  0  0  0
 16 17  1  0  0  0
 17 10  1  0  0  0
 10 11  2  0  0  0
 11 12  1  0  0  0
 12 13  2  0  0  0
 13 14  1  0  0  0
 14 15  2  0  0  0
  1 15  1  0  0  0
  1  2  1  0  0  0
  2  3  1  0  0  0
  3  4  1  0  0  0
  3  5  1  0  0  0
  5  6  1  0  0  0
  6  7  1  0  0  0
  7  8  1  0  0  0
  8  9  2  0  0  0
  8 18  1  0  0  0
 18 19  1  0  0  0
 19 20  2  0  0  0
 20 21  1  0  0  0
 21 22  2  0  0  0
 22 23  1  0  0  0
 23 24  2  0  0  0
 24 25  1  0  0  0
 25 26  2  0  0  0
 26 27  1  0  0  0
 27 28  2  0  0  0
 15 10  1  0  0  0
  7  1  1  0  0  0
 28 19  1  0  0  0
 28 23  1  0  0  0
M  END
> <minimizedAffinity>
-7.66815

> <CNNscore>
0.6381657720

> <CNNaffinity>
5.8511500359

> <CNN_VS>
3.7340037823

> <CNNaffinity_variance>
0.4215016365

$$$$



 28 31  0  0  0  0  0  0  0  0999 V2000
   -5.3867    1.2728  -21.4197 C   0  0  0  0  0  0  0  0  0  0  0  0
   -4.2834    2.2800  -21.5553 C   0  0  0  0  0  0  0  0  0  0  0  0
   -3.2437    2.4026  -20.4811 C   0  0  0  0  0  0  0  0  0  0  0  0
   -2.1404    3.4098  -20.6167 C   0  0  0  0  0  0  0  0  0  0  0  0
   -3.3071    1.5180  -19.2713 C   0  0  0  0  0  0  0  0  0  0  0  0
   -4.4104    0.5108  -19.1357 C   0  0  0  0  0  0  0  0  0  0  0  0
   -5.4502    0.3882  -20.2100 N   0  0  0  0  0  0  0  0  0  0  0  0
   -6.5534   -0.6190  -20.0744 C   0  0  0  0  0  0  0  0  0  0  0  0
   -6.6169   -1.5036  -18.8646 O   0  0  0  0  0  0  0  0  0  0  0  0
   -6.1387    0.3480  -23.7282 C   0  0  0  0  0  0  0  0  0  0  0  0
   -7.1785    0.2254  -24.8023 C   0  0  0  0  0  0  0  0  0  0  0  0
   -8.5061    0.9051  -24.6421 C   0  0  0  0  0  0  0  0  0  0  0  0
   -8.7938    1.7074  -23.4078 C   0  0  0  0  0  0  0  0  0  0  0  0
   -7.7540    1.8299  -22.3337 C   0  0  0  0  0  0  0  0  0  0  0  0
   -6.4265    1.1502  -22.4939 C   0  0  0  0  0  0  0  0  0  0  0  0
   -4.5786   -1.2604  -25.0431 C   0  0  0  0  0  0  0  0  0  0  0  0
   -4.8112   -0.3317  -23.8883 O   0  0  0  0  0  0  0  0  0  0  0  0
   -7.5932   -0.7416  -21.1485 C   0  0  0  0  0  0  0  0  0  0  0  0
   -7.6700   -1.9882  -21.9792 C   0  0  0  0  0  0  0  0  0  0  0  0
   -6.4817   -2.8982  -22.0777 C   0  0  0  0  0  0  0  0  0  0  0  0
   -6.5586   -4.1449  -22.9084 N   0  0  0  0  0  0  0  0  0  0  0  0
   -7.8237   -4.4815  -23.6405 C   0  0  0  0  0  0  0  0  0  0  0  0
   -9.0121   -3.5715  -23.5420 C   0  0  0  0  0  0  0  0  0  0  0  0
  -10.2773   -3.9081  -24.2741 C   0  0  0  0  0  0  0  0  0  0  0  0
  -11.4656   -2.9981  -24.1755 C   0  0  0  0  0  0  0  0  0  0  0  0
  -11.3887   -1.7514  -23.3449 C   0  0  0  0  0  0  0  0  0  0  0  0
  -10.1236   -1.4148  -22.6128 C   0  0  0  0  0  0  0  0  0  0  0  0
   -8.9353   -2.3248  -22.7113 C   0  0  0  0  0  0  0  0  0  0  0  0
 16 17  1  0  0  0
 17 10  1  0  0  0
 10 11  2  0  0  0
 11 12  1  0  0  0
 12 13  2  0  0  0
 13 14  1  0  0  0
 14 15  2  0  0  0
  1 15  1  0  0  0
  1  2  1  0  0  0
  2  3  1  0  0  0
  3  4  1  0  0  0
  3  5  1  0  0  0
  5  6  1  0  0  0
  6  7  1  0  0  0
  7  8  1  0  0  0
  8  9  2  0  0  0
  8 18  1  0  0  0
 18 19  1  0  0  0
 19 20  2  0  0  0
 20 21  1  0  0  0
 21 22  2  0  0  0
 22 23  1  0  0  0
 23 24  2  0  0  0
 24 25  1  0  0  0
 25 26  2  0  0  0
 26 27  1  0  0  0
 27 28  2  0  0  0
 15 10  1  0  0  0
  7  1  1  0  0  0
 28 19  1  0  0  0
 28 23  1  0  0  0
M  END
> <minimizedAffinity>
-6.46796

> <CNNscore>
0.4393360615

> <CNNaffinity>
5.7117891312

> <CNN_VS>
2.5093948841

> <CNNaffinity_variance>
0.1564993411

$$$$



 28 31  0  0  0  0  0  0  0  0999 V2000
   -7.1268   -3.6245  -23.0386 C   0  0  0  0  0  0  0  0  0  0  0  0
   -6.4818   -4.8302  -22.4219 C   0  0  0  0  0  0  0  0  0  0  0  0
   -6.6635   -6.1809  -23.0483 C   0  0  0  0  0  0  0  0  0  0  0  0
   -6.0186   -7.3866  -22.4316 C   0  0  0  0  0  0  0  0  0  0  0  0
   -7.4903   -6.3260  -24.2915 C   0  0  0  0  0  0  0  0  0  0  0  0
   -8.1353   -5.1203  -24.9082 C   0  0  0  0  0  0  0  0  0  0  0  0
   -7.9535   -3.7696  -24.2817 N   0  0  0  0  0  0  0  0  0  0  0  0
   -8.5985   -2.5639  -24.8984 C   0  0  0  0  0  0  0  0  0  0  0  0
   -9.4253   -2.7090  -26.1416 O   0  0  0  0  0  0  0  0  0  0  0  0
   -5.9000   -1.3364  -22.9405 C   0  0  0  0  0  0  0  0  0  0  0  0
   -5.7182    0.0143  -22.3140 C   0  0  0  0  0  0  0  0  0  0  0  0
   -6.5815    0.4276  -21.1591 C   0  0  0  0  0  0  0  0  0  0  0  0
   -7.6265   -0.5097  -20.6306 C   0  0  0  0  0  0  0  0  0  0  0  0
   -7.8083   -1.8604  -21.2571 C   0  0  0  0  0  0  0  0  0  0  0  0
   -6.9450   -2.2737  -22.4121 C   0  0  0  0  0  0  0  0  0  0  0  0
   -4.1682   -0.7380  -24.7824 C   0  0  0  0  0  0  0  0  0  0  0  0
   -5.0367   -1.7498  -24.0954 O   0  0  0  0  0  0  0  0  0  0  0  0
   -8.4167   -1.2131  -24.2720 C   0  0  0  0  0  0  0  0  0  0  0  0
   -9.5826   -0.2762  -24.1581 C   0  0  0  0  0  0  0  0  0  0  0  0
   -9.4377    1.1560  -24.5795 C   0  0  0  0  0  0  0  0  0  0  0  0
  -10.6035    2.0930  -24.4657 N   0  0  0  0  0  0  0  0  0  0  0  0
  -11.9142    1.5977  -23.9303 C   0  0  0  0  0  0  0  0  0  0  0  0
  -12.0592    0.1654  -23.5088 C   0  0  0  0  0  0  0  0  0  0  0  0
  -13.3699   -0.3299  -22.9735 C   0  0  0  0  0  0  0  0  0  0  0  0
  -13.5148   -1.7621  -22.5521 C   0  0  0  0  0  0  0  0  0  0  0  0
  -12.3490   -2.6991  -22.6659 C   0  0  0  0  0  0  0  0  0  0  0  0
  -11.0383   -2.2038  -23.2013 C   0  0  0  0  0  0  0  0  0  0  0  0
  -10.8934   -0.7716  -23.6227 C   0  0  0  0  0  0  0  0  0  0  0  0
 16 17  1  0  0  0
 17 10  1  0  0  0
 10 11  2  0  0  0
 11 12  1  0  0  0
 12 13  2  0  0  0
 13 14  1  0  0  0
 14 15  2  0  0  0
  1 15  1  0  0  0
  1  2  1  0  0  0
  2  3  1  0  0  0
  3  4  1  0  0  0
  3  5  1  0  0  0
  5  6  1  0  0  0
  6  7  1  0  0  0
  7  8  1  0  0  0
  8  9  2  0  0  0
  8 18  1  0  0  0
 18 19  1  0  0  0
 19 20  2  0  0  0
 20 21  1  0  0  0
 21 22  2  0  0  0
 22 23  1  0  0  0
 23 24  2  0  0  0
 24 25  1  0  0  0
 25 26  2  0  0  0
 26 27  1  0  0  0
 27 28  2  0  0  0
 15 10  1  0  0  0
  7  1  1  0  0  0
 28 19  1  0  0  0
 28 23  1  0  0  0
M  END
> <minimizedAffinity>
-6.34059

> <CNNscore>
0.3669943511

> <CNNaffinity>
5.8298387527

> <CNN_VS>
2.1395177841

> <CNNaffinity_variance>
0.1069048271

$$$$



 28 31  0  0  0  0  0  0  0  0999 V2000
   -9.1735   -0.9194  -24.0035 C   0  0  0  0  0  0  0  0  0  0  0  0
   -8.2731   -2.1092  -24.1567 C   0  0  0  0  0  0  0  0  0  0  0  0
   -8.8594   -3.4868  -24.2473 C   0  0  0  0  0  0  0  0  0  0  0  0
   -7.9590   -4.6767  -24.4005 C   0  0  0  0  0  0  0  0  0  0  0  0
  -10.3464   -3.6747  -24.1847 C   0  0  0  0  0  0  0  0  0  0  0  0
  -11.2468   -2.4849  -24.0315 C   0  0  0  0  0  0  0  0  0  0  0  0
  -10.6604   -1.1072  -23.9409 N   0  0  0  0  0  0  0  0  0  0  0  0
  -11.5608    0.0826  -23.7877 C   0  0  0  0  0  0  0  0  0  0  0  0
  -13.0478   -0.1052  -23.7251 O   0  0  0  0  0  0  0  0  0  0  0  0
   -8.2195    1.0305  -22.5759 C   0  0  0  0  0  0  0  0  0  0  0  0
   -7.6331    2.4081  -22.4854 C   0  0  0  0  0  0  0  0  0  0  0  0
   -7.4142    3.2135  -23.7317 C   0  0  0  0  0  0  0  0  0  0  0  0
   -7.7817    2.6413  -25.0687 C   0  0  0  0  0  0  0  0  0  0  0  0
   -8.3682    1.2637  -25.1592 C   0  0  0  0  0  0  0  0  0  0  0  0
   -8.5870    0.4583  -23.9129 C   0  0  0  0  0  0  0  0  0  0  0  0
   -7.2713   -0.4058  -20.6297 C   0  0  0  0  0  0  0  0  0  0  0  0
   -8.4384    0.2251  -21.3296 O   0  0  0  0  0  0  0  0  0  0  0  0
  -10.9744    1.4603  -23.6971 C   0  0  0  0  0  0  0  0  0  0  0  0
  -11.8618    2.6360  -23.4140 C   0  0  0  0  0  0  0  0  0  0  0  0
  -12.7584    2.6266  -22.2114 C   0  0  0  0  0  0  0  0  0  0  0  0
  -13.6458    3.8023  -21.9283 N   0  0  0  0  0  0  0  0  0  0  0  0
  -13.6367    4.9875  -22.8477 C   0  0  0  0  0  0  0  0  0  0  0  0
  -12.7401    4.9969  -24.0503 C   0  0  0  0  0  0  0  0  0  0  0  0
  -12.7310    6.1820  -24.9698 C   0  0  0  0  0  0  0  0  0  0  0  0
  -11.8345    6.1914  -26.1723 C   0  0  0  0  0  0  0  0  0  0  0  0
  -10.9471    5.0157  -26.4554 C   0  0  0  0  0  0  0  0  0  0  0  0
  -10.9562    3.8305  -25.5360 C   0  0  0  0  0  0  0  0  0  0  0  0
  -11.8527    3.8212  -24.3335 C   0  0  0  0  0  0  0  0  0  0  0  0
 16 17  1  0  0  0
 17 10  1  0  0  0
 10 11  2  0  0  0
 11 12  1  0  0  0
 12 13  2  0  0  0
 13 14  1  0  0  0
 14 15  2  0  0  0
  1 15  1  0  0  0
  1  2  1  0  0  0
  2  3  1  0  0  0
  3  4  1  0  0  0
  3  5  1  0  0  0
  5  6  1  0  0  0
  6  7  1  0  0  0
  7  8  1  0  0  0
  8  9  2  0  0  0
  8 18  1  0  0  0
 18 19  1  0  0  0
 19 20  2  0  0  0
 20 21  1  0  0  0
 21 22  2  0  0  0
 22 23  1  0  0  0
 23 24  2  0  0  0
 24 25  1  0  0  0
 25 26  2  0  0  0
 26 27  1  0  0  0
 27 28  2  0  0  0
 15 10  1  0  0  0
  7  1  1  0  0  0
 28 19  1  0  0  0
 28 23  1  0  0  0
M  END
> <minimizedAffinity>
-6.77236

> <CNNscore>
0.3647622168

> <CNNaffinity>
5.4405260086

> <CNN_VS>
1.9844983816

> <CNNaffinity_variance>
0.3757236302

$$$$



 28 31  0  0  0  0  0  0  0  0999 V2000
   -9.3202   -0.2825  -23.2644 C   0  0  0  0  0  0  0  0  0  0  0  0
  -10.7530    0.0512  -23.5574 C   0  0  0  0  0  0  0  0  0  0  0  0
  -11.8138   -0.9982  -23.4045 C   0  0  0  0  0  0  0  0  0  0  0  0
  -13.2466   -0.6645  -23.6975 C   0  0  0  0  0  0  0  0  0  0  0  0
  -11.4420   -2.3813  -22.9586 C   0  0  0  0  0  0  0  0  0  0  0  0
  -10.0092   -2.7150  -22.6656 C   0  0  0  0  0  0  0  0  0  0  0  0
   -8.9483   -1.6656  -22.8185 N   0  0  0  0  0  0  0  0  0  0  0  0
   -7.5156   -1.9992  -22.5255 C   0  0  0  0  0  0  0  0  0  0  0  0
   -7.1437   -3.3824  -22.0796 O   0  0  0  0  0  0  0  0  0  0  0  0
   -7.4558    0.8424  -24.6816 C   0  0  0  0  0  0  0  0  0  0  0  0
   -6.3950    1.8918  -24.8344 C   0  0  0  0  0  0  0  0  0  0  0  0
   -6.1377    2.8657  -23.7229 C   0  0  0  0  0  0  0  0  0  0  0  0
   -6.9413    2.7902  -22.4586 C   0  0  0  0  0  0  0  0  0  0  0  0
   -8.0021    1.7408  -22.3058 C   0  0  0  0  0  0  0  0  0  0  0  0
   -8.2594    0.7669  -23.4173 C   0  0  0  0  0  0  0  0  0  0  0  0
   -7.6575    0.3273  -27.2200 C   0  0  0  0  0  0  0  0  0  0  0  0
   -7.7130   -0.1315  -25.7930 O   0  0  0  0  0  0  0  0  0  0  0  0
   -6.4547   -0.9499  -22.6784 C   0  0  0  0  0  0  0  0  0  0  0  0
   -5.7438   -0.4202  -21.4684 C   0  0  0  0  0  0  0  0  0  0  0  0
   -6.3723   -0.5498  -20.1126 C   0  0  0  0  0  0  0  0  0  0  0  0
   -5.6614   -0.0202  -18.9027 N   0  0  0  0  0  0  0  0  0  0  0  0
   -4.3220    0.6391  -19.0484 C   0  0  0  0  0  0  0  0  0  0  0  0
   -3.6934    0.7687  -20.4042 C   0  0  0  0  0  0  0  0  0  0  0  0
   -2.3539    1.4279  -20.5500 C   0  0  0  0  0  0  0  0  0  0  0  0
   -1.7254    1.5574  -21.9058 C   0  0  0  0  0  0  0  0  0  0  0  0
   -2.4363    1.0278  -23.1158 C   0  0  0  0  0  0  0  0  0  0  0  0
   -3.7758    0.3686  -22.9700 C   0  0  0  0  0  0  0  0  0  0  0  0
   -4.4043    0.2390  -21.6142 C   0  0  0  0  0  0  0  0  0  0  0  0
 16 17  1  0  0  0
 17 10  1  0  0  0
 10 11  2  0  0  0
 11 12  1  0  0  0
 12 13  2  0  0  0
 13 14  1  0  0  0
 14 15  2  0  0  0
  1 15  1  0  0  0
  1  2  1  0  0  0
  2  3  1  0  0  0
  3  4  1  0  0  0
  3  5  1  0  0  0
  5  6  1  0  0  0
  6  7  1  0  0  0
  7  8  1  0  0  0
  8  9  2  0  0  0
  8 18  1  0  0  0
 18 19  1  0  0  0
 19 20  2  0  0  0
 20 21  1  0  0  0
 21 22  2  0  0  0
 22 23  1  0  0  0
 23 24  2  0  0  0
 24 25  1  0  0  0
 25 26  2  0  0  0
 26 27  1  0  0  0
 27 28  2  0  0  0
 15 10  1  0  0  0
  7  1  1  0  0  0
 28 19  1  0  0  0
 28 23  1  0  0  0
M  END
> <minimizedAffinity>
-6.22586

> <CNNscore>
0.3419681489

> <CNNaffinity>
5.6376008987

> <CNN_VS>
1.9278799295

> <CNNaffinity_variance>
0.0900665149

$$$$



 28 31  0  0  0  0  0  0  0  0999 V2000
   -5.3210    1.6992  -21.8890 C   0  0  0  0  0  0  0  0  0  0  0  0
   -3.9886    2.3771  -21.7659 C   0  0  0  0  0  0  0  0  0  0  0  0
   -3.1254    2.1220  -20.5660 C   0  0  0  0  0  0  0  0  0  0  0  0
   -1.7930    2.7999  -20.4429 C   0  0  0  0  0  0  0  0  0  0  0  0
   -3.5946    1.1891  -19.4891 C   0  0  0  0  0  0  0  0  0  0  0  0
   -4.9270    0.5112  -19.6122 C   0  0  0  0  0  0  0  0  0  0  0  0
   -5.7902    0.7663  -20.8122 N   0  0  0  0  0  0  0  0  0  0  0  0
   -7.1226    0.0884  -20.9353 C   0  0  0  0  0  0  0  0  0  0  0  0
   -7.5918   -0.8445  -19.8584 O   0  0  0  0  0  0  0  0  0  0  0  0
   -7.0753    3.1602  -23.1291 C   0  0  0  0  0  0  0  0  0  0  0  0
   -7.9385    3.4152  -24.3291 C   0  0  0  0  0  0  0  0  0  0  0  0
   -7.9105    2.4643  -25.4888 C   0  0  0  0  0  0  0  0  0  0  0  0
   -7.0194    1.2584  -25.4486 C   0  0  0  0  0  0  0  0  0  0  0  0
   -6.1563    1.0034  -24.2487 C   0  0  0  0  0  0  0  0  0  0  0  0
   -6.1842    1.9543  -23.0890 C   0  0  0  0  0  0  0  0  0  0  0  0
   -7.3820    5.5668  -22.1997 C   0  0  0  0  0  0  0  0  0  0  0  0
   -7.1033    4.1111  -21.9694 O   0  0  0  0  0  0  0  0  0  0  0  0
   -7.9858    0.3435  -22.1352 C   0  0  0  0  0  0  0  0  0  0  0  0
   -9.1059   -0.5975  -22.4670 C   0  0  0  0  0  0  0  0  0  0  0  0
   -8.8824   -2.0796  -22.4088 C   0  0  0  0  0  0  0  0  0  0  0  0
  -10.0025   -3.0206  -22.7407 N   0  0  0  0  0  0  0  0  0  0  0  0
  -11.3459   -2.4794  -23.1307 C   0  0  0  0  0  0  0  0  0  0  0  0
  -11.5695   -0.9973  -23.1889 C   0  0  0  0  0  0  0  0  0  0  0  0
  -12.9130   -0.4561  -23.5789 C   0  0  0  0  0  0  0  0  0  0  0  0
  -13.1364    1.0259  -23.6371 C   0  0  0  0  0  0  0  0  0  0  0  0
  -12.0164    1.9669  -23.3053 C   0  0  0  0  0  0  0  0  0  0  0  0
  -10.6729    1.4258  -22.9153 C   0  0  0  0  0  0  0  0  0  0  0  0
  -10.4494   -0.0563  -22.8571 C   0  0  0  0  0  0  0  0  0  0  0  0
 16 17  1  0  0  0
 17 10  1  0  0  0
 10 11  2  0  0  0
 11 12  1  0  0  0
 12 13  2  0  0  0
 13 14  1  0  0  0
 14 15  2  0  0  0
  1 15  1  0  0  0
  1  2  1  0  0  0
  2  3  1  0  0  0
  3  4  1  0  0  0
  3  5  1  0  0  0
  5  6  1  0  0  0
  6  7  1  0  0  0
  7  8  1  0  0  0
  8  9  2  0  0  0
  8 18  1  0  0  0
 18 19  1  0  0  0
 19 20  2  0  0  0
 20 21  1  0  0  0
 21 22  2  0  0  0
 22 23  1  0  0  0
 23 24  2  0  0  0
 24 25  1  0  0  0
 25 26  2  0  0  0
 26 27  1  0  0  0
 27 28  2  0  0  0
 15 10  1  0  0  0
  7  1  1  0  0  0
 28 19  1  0  0  0
 28 23  1  0  0  0
M  END
> <minimizedAffinity>
-7.05381

> <CNNscore>
0.2758127749

> <CNNaffinity>
5.3219165802

> <CNN_VS>
1.4678525925

> <CNNaffinity_variance>
0.2441333979

$$$$



 28 31  0  0  0  0  0  0  0  0999 V2000
   -9.1731   -1.1998  -23.9172 C   0  0  0  0  0  0  0  0  0  0  0  0
   -8.3359   -2.4363  -24.0591 C   0  0  0  0  0  0  0  0  0  0  0  0
   -8.9943   -3.7684  -24.2640 C   0  0  0  0  0  0  0  0  0  0  0  0
   -8.1570   -5.0049  -24.4059 C   0  0  0  0  0  0  0  0  0  0  0  0
  -10.4899   -3.8640  -24.3270 C   0  0  0  0  0  0  0  0  0  0  0  0
  -11.3271   -2.6275  -24.1851 C   0  0  0  0  0  0  0  0  0  0  0  0
  -10.6687   -1.2954  -23.9802 N   0  0  0  0  0  0  0  0  0  0  0  0
  -11.5059   -0.0589  -23.8383 C   0  0  0  0  0  0  0  0  0  0  0  0
  -13.0016   -0.1545  -23.9013 O   0  0  0  0  0  0  0  0  0  0  0  0
   -8.1285    0.9681  -24.8965 C   0  0  0  0  0  0  0  0  0  0  0  0
   -7.4700    2.3002  -24.6915 C   0  0  0  0  0  0  0  0  0  0  0  0
   -7.1978    2.7965  -23.3024 C   0  0  0  0  0  0  0  0  0  0  0  0
   -7.5839    1.9607  -22.1183 C   0  0  0  0  0  0  0  0  0  0  0  0
   -8.2424    0.6286  -22.3232 C   0  0  0  0  0  0  0  0  0  0  0  0
   -8.5146    0.1324  -23.7123 C   0  0  0  0  0  0  0  0  0  0  0  0
   -7.2648    0.0329  -27.1613 C   0  0  0  0  0  0  0  0  0  0  0  0
   -8.4007    0.4719  -26.2856 O   0  0  0  0  0  0  0  0  0  0  0  0
  -10.8475    1.2732  -23.6334 C   0  0  0  0  0  0  0  0  0  0  0  0
  -11.6853    2.4991  -23.4204 C   0  0  0  0  0  0  0  0  0  0  0  0
  -12.6630    2.5512  -22.2840 C   0  0  0  0  0  0  0  0  0  0  0  0
  -13.5008    3.7770  -22.0710 N   0  0  0  0  0  0  0  0  0  0  0  0
  -13.3609    4.9508  -22.9944 C   0  0  0  0  0  0  0  0  0  0  0  0
  -12.3832    4.8987  -24.1308 C   0  0  0  0  0  0  0  0  0  0  0  0
  -12.2433    6.0725  -25.0542 C   0  0  0  0  0  0  0  0  0  0  0  0
  -11.2656    6.0204  -26.1906 C   0  0  0  0  0  0  0  0  0  0  0  0
  -10.4278    4.7945  -26.4036 C   0  0  0  0  0  0  0  0  0  0  0  0
  -10.5677    3.6208  -25.4802 C   0  0  0  0  0  0  0  0  0  0  0  0
  -11.5454    3.6729  -24.3438 C   0  0  0  0  0  0  0  0  0  0  0  0
 16 17  1  0  0  0
 17 10  1  0  0  0
 10 11  2  0  0  0
 11 12  1  0  0  0
 12 13  2  0  0  0
 13 14  1  0  0  0
 14 15  2  0  0  0
  1 15  1  0  0  0
  1  2  1  0  0  0
  2  3  1  0  0  0
  3  4  1  0  0  0
  3  5  1  0  0  0
  5  6  1  0  0  0
  6  7  1  0  0  0
  7  8  1  0  0  0
  8  9  2  0  0  0
  8 18  1  0  0  0
 18 19  1  0  0  0
 19 20  2  0  0  0
 20 21  1  0  0  0
 21 22  2  0  0  0
 22 23  1  0  0  0
 23 24  2  0  0  0
 24 25  1  0  0  0
 25 26  2  0  0  0
 26 27  1  0  0  0
 27 28  2  0  0  0
 15 10  1  0  0  0
  7  1  1  0  0  0
 28 19  1  0  0  0
 28 23  1  0  0  0
M  END
> <minimizedAffinity>
-6.33711

> <CNNscore>
0.2756733894

> <CNNaffinity>
5.2352271080

> <CNN_VS>
1.4432127476

> <CNNaffinity_variance>
0.4708929956

$$$$



 28 31  0  0  0  0  0  0  0  0999 V2000
   -5.3659    1.4199  -21.8638 C   0  0  0  0  0  0  0  0  0  0  0  0
   -4.0526    2.1084  -21.6375 C   0  0  0  0  0  0  0  0  0  0  0  0
   -3.3069    1.8980  -20.3531 C   0  0  0  0  0  0  0  0  0  0  0  0
   -1.9937    2.5866  -20.1269 C   0  0  0  0  0  0  0  0  0  0  0  0
   -3.8746    0.9991  -19.2949 C   0  0  0  0  0  0  0  0  0  0  0  0
   -5.1879    0.3106  -19.5212 C   0  0  0  0  0  0  0  0  0  0  0  0
   -5.9335    0.5210  -20.8057 N   0  0  0  0  0  0  0  0  0  0  0  0
   -7.2468   -0.1675  -21.0319 C   0  0  0  0  0  0  0  0  0  0  0  0
   -7.8145   -1.0665  -19.9737 O   0  0  0  0  0  0  0  0  0  0  0  0
   -5.8834    0.7066  -24.3079 C   0  0  0  0  0  0  0  0  0  0  0  0
   -6.6290    0.9171  -25.5923 C   0  0  0  0  0  0  0  0  0  0  0  0
   -7.6028    2.0512  -25.7170 C   0  0  0  0  0  0  0  0  0  0  0  0
   -7.8309    2.9749  -24.5575 C   0  0  0  0  0  0  0  0  0  0  0  0
   -7.0852    2.7645  -23.2731 C   0  0  0  0  0  0  0  0  0  0  0  0
   -6.1115    1.6303  -23.1483 C   0  0  0  0  0  0  0  0  0  0  0  0
   -4.4373   -1.1490  -25.4104 C   0  0  0  0  0  0  0  0  0  0  0  0
   -4.9097   -0.4275  -24.1831 O   0  0  0  0  0  0  0  0  0  0  0  0
   -7.9925    0.0428  -22.3163 C   0  0  0  0  0  0  0  0  0  0  0  0
   -9.1734   -0.8205  -22.6480 C   0  0  0  0  0  0  0  0  0  0  0  0
   -9.0281   -2.3132  -22.6720 C   0  0  0  0  0  0  0  0  0  0  0  0
  -10.2090   -3.1765  -23.0037 N   0  0  0  0  0  0  0  0  0  0  0  0
  -11.5353   -2.5471  -23.3115 C   0  0  0  0  0  0  0  0  0  0  0  0
  -11.6807   -1.0543  -23.2876 C   0  0  0  0  0  0  0  0  0  0  0  0
  -13.0070   -0.4249  -23.5954 C   0  0  0  0  0  0  0  0  0  0  0  0
  -13.1523    1.0678  -23.5715 C   0  0  0  0  0  0  0  0  0  0  0  0
  -11.9713    1.9311  -23.2398 C   0  0  0  0  0  0  0  0  0  0  0  0
  -10.6451    1.3017  -22.9319 C   0  0  0  0  0  0  0  0  0  0  0  0
  -10.4997   -0.1910  -22.9559 C   0  0  0  0  0  0  0  0  0  0  0  0
 16 17  1  0  0  0
 17 10  1  0  0  0
 10 11  2  0  0  0
 11 12  1  0  0  0
 12 13  2  0  0  0
 13 14  1  0  0  0
 14 15  2  0  0  0
  1 15  1  0  0  0
  1  2  1  0  0  0
  2  3  1  0  0  0
  3  4  1  0  0  0
  3  5  1  0  0  0
  5  6  1  0  0  0
  6  7  1  0  0  0
  7  8  1  0  0  0
  8  9  2  0  0  0
  8 18  1  0  0  0
 18 19  1  0  0  0
 19 20  2  0  0  0
 20 21  1  0  0  0
 21 22  2  0  0  0
 22 23  1  0  0  0
 23 24  2  0  0  0
 24 25  1  0  0  0
 25 26  2  0  0  0
 26 27  1  0  0  0
 27 28  2  0  0  0
 15 10  1  0  0  0
  7  1  1  0  0  0
 28 19  1  0  0  0
 28 23  1  0  0  0
M  END
> <minimizedAffinity>
-6.75872

> <CNNscore>
0.2579089105

> <CNNaffinity>
5.3370919228

> <CNN_VS>
1.3764835596

> <CNNaffinity_variance>
0.1739773005

$$$$
