


 42 47  0  0  0  0  0  0  0  0999 V2000
   10.1148    0.3824   22.9835 N   0  0  0  0  0  0  0  0  0  0  0  0
    8.9219   -0.5135   22.8269 C   0  0  0  0  0  0  0  0  0  0  0  0
    8.8411   -1.7967   23.5994 C   0  0  0  0  0  0  0  0  0  0  0  0
    8.6217   -3.1036   24.3021 C   0  0  0  0  0  0  0  0  0  0  0  0
    9.1702   -3.8324   25.1049 O   0  0  0  0  0  0  0  0  0  0  0  0
    7.3032   -3.6577   23.8496 N   0  0  0  0  0  0  0  0  0  0  0  0
    6.7078   -2.6932   22.8672 C   0  0  0  0  0  0  0  0  0  0  0  0
    7.6583   -1.5431   22.7125 C   0  0  0  0  0  0  0  0  0  0  0  0
    9.9532   -2.1841   24.5286 C   0  0  0  0  0  0  0  0  0  0  0  0
    9.8724   -3.4673   25.3011 C   0  0  0  0  0  0  0  0  0  0  0  0
   10.9845   -3.8547   26.2302 C   0  0  0  0  0  0  0  0  0  0  0  0
   10.9037   -5.1379   27.0028 Cl  0  0  0  0  0  0  0  0  0  0  0  0
   12.1773   -2.9588   26.3868 C   0  0  0  0  0  0  0  0  0  0  0  0
   12.2581   -1.6756   25.6143 C   0  0  0  0  0  0  0  0  0  0  0  0
   11.1461   -1.2882   24.6852 C   0  0  0  0  0  0  0  0  0  0  0  0
   11.2268   -0.0050   23.9126 C   0  0  0  0  0  0  0  0  0  0  0  0
   12.4196    0.8909   24.0693 O   0  0  0  0  0  0  0  0  0  0  0  0
    6.6882   -4.9494   24.3004 C   0  0  0  0  0  0  0  0  0  0  0  0
    7.2030   -6.2524   23.7646 C   0  0  0  0  0  0  0  0  0  0  0  0
    6.5880   -7.5441   24.2154 N   0  0  0  0  0  0  0  0  0  0  0  0
    5.4582   -7.5328   25.2020 C   0  0  0  0  0  0  0  0  0  0  0  0
    4.9434   -6.2297   25.7378 C   0  0  0  0  0  0  0  0  0  0  0  0
    3.8135   -6.2184   26.7244 C   0  0  0  0  0  0  0  0  0  0  0  0
    3.2988   -4.9153   27.2601 C   0  0  0  0  0  0  0  0  0  0  0  0
    3.9138   -3.6236   26.8094 C   0  0  0  0  0  0  0  0  0  0  0  0
    5.0436   -3.6350   25.8228 C   0  0  0  0  0  0  0  0  0  0  0  0
    5.5584   -4.9380   25.2870 C   0  0  0  0  0  0  0  0  0  0  0  0
   10.1955    1.6656   22.2110 C   0  0  0  0  0  0  0  0  0  0  0  0
    7.9464    4.6886   23.4570 C   0  0  0  0  0  0  0  0  0  0  0  0
    9.0662    3.6937   23.3777 N   0  0  0  0  0  0  0  0  0  0  0  0
    9.0758    2.6605   22.2903 C   0  0  0  0  0  0  0  0  0  0  0  0
    7.9656    2.6222   21.2823 O   0  0  0  0  0  0  0  0  0  0  0  0
    9.7948    3.7189   24.0392 H   0  0  0  0  0  0  0  0  0  0  0  0
    7.4606   -0.3489   21.8265 C   0  0  0  0  0  0  0  0  0  0  0  0
    7.2751   -0.5333   20.3496 N   0  0  0  0  0  0  0  0  0  0  0  0
    7.8847   -1.1202   19.8464 H   0  0  0  0  0  0  0  0  0  0  0  0
    6.1609    0.1765   19.6392 C   0  0  0  0  0  0  0  0  0  0  0  0
    4.9641    0.6523   20.4081 C   0  0  0  0  0  0  0  0  0  0  0  0
    3.8499    1.3621   19.6978 N   0  0  0  0  0  0  0  0  0  0  0  0
    3.9323    1.5960   18.2184 C   0  0  0  0  0  0  0  0  0  0  0  0
    5.1291    1.1202   17.4495 C   0  0  0  0  0  0  0  0  0  0  0  0
    6.2434    0.4104   18.1599 N   0  0  0  0  0  0  0  0  0  0  0  0
 29 30  1  0  0  0
 30 31  1  0  0  0
 31 32  2  0  0  0
 31 28  1  0  0  0
 28  1  1  0  0  0
  1  2  1  0  0  0
  3  2  1  0  0  0
  3  4  1  0  0  0
  4  5  2  0  0  0
  4  6  1  0  0  0
  6 18  1  0  0  0
 18 19  2  0  0  0
 19 20  1  0  0  0
 20 21  2  0  0  0
 21 22  1  0  0  0
 22 23  2  0  0  0
 23 24  1  0  0  0
 24 25  2  0  0  0
 25 26  1  0  0  0
 26 27  2  0  0  0
  6  7  1  0  0  0
  7  8  1  0  0  0
  8 34  1  0  0  0
 34 35  1  0  0  0
 35 37  1  0  0  0
 37 38  2  0  0  0
 38 39  1  0  0  0
 39 40  2  0  0  0
 40 41  1  0  0  0
 41 42  2  0  0  0
  3  9  1  0  0  0
  9 10  2  0  0  0
 10 11  1  0  0  0
 11 12  1  0  0  0
 11 13  2  0  0  0
 13 14  1  0  0  0
 14 15  2  0  0  0
 15 16  1  0  0  0
 16 17  2  0  0  0
 16  1  1  0  0  0
  8  3  1  0  0  0
 42 37  1  0  0  0
 15  9  1  0  0  0
 27 18  1  0  0  0
 27 22  1  0  0  0
 30 33  1  0  0  0
 35 36  1  0  0  0
M  END
> <minimizedAffinity>
-9.36191

> <CNNscore>
0.5259140730

> <CNNaffinity>
7.3070616722

> <CNN_VS>
3.8428864479

> <CNNaffinity_variance>
0.1157881394

$$$$



 42 47  0  0  0  0  0  0  0  0999 V2000
    7.0339   -3.8408   23.3761 N   0  0  0  0  0  0  0  0  0  0  0  0
    7.2013   -2.4487   22.8430 C   0  0  0  0  0  0  0  0  0  0  0  0
    8.3885   -1.6274   23.2503 C   0  0  0  0  0  0  0  0  0  0  0  0
    9.5178   -0.6921   23.5664 C   0  0  0  0  0  0  0  0  0  0  0  0
   10.5380   -0.6538   24.2253 O   0  0  0  0  0  0  0  0  0  0  0  0
    9.2833    0.5871   22.8190 N   0  0  0  0  0  0  0  0  0  0  0  0
    8.0091    0.4424   22.0409 C   0  0  0  0  0  0  0  0  0  0  0  0
    7.4561   -0.9262   22.3075 C   0  0  0  0  0  0  0  0  0  0  0  0
    9.4084   -2.1981   24.1907 C   0  0  0  0  0  0  0  0  0  0  0  0
   10.5956   -1.3768   24.5980 C   0  0  0  0  0  0  0  0  0  0  0  0
   11.6153   -1.9475   25.5384 C   0  0  0  0  0  0  0  0  0  0  0  0
   12.8026   -1.1262   25.9457 Cl  0  0  0  0  0  0  0  0  0  0  0  0
   11.4479   -3.3396   26.0714 C   0  0  0  0  0  0  0  0  0  0  0  0
   10.2607   -4.1609   25.6642 C   0  0  0  0  0  0  0  0  0  0  0  0
    9.2409   -3.5902   24.7238 C   0  0  0  0  0  0  0  0  0  0  0  0
    8.0536   -4.4115   24.3165 C   0  0  0  0  0  0  0  0  0  0  0  0
    7.8862   -5.8035   24.8495 O   0  0  0  0  0  0  0  0  0  0  0  0
   10.1678    1.7983   22.8451 C   0  0  0  0  0  0  0  0  0  0  0  0
   11.6524    1.6464   22.6933 C   0  0  0  0  0  0  0  0  0  0  0  0
   12.5368    2.8576   22.7194 N   0  0  0  0  0  0  0  0  0  0  0  0
   11.9367    4.2207   22.8973 C   0  0  0  0  0  0  0  0  0  0  0  0
   10.4521    4.3727   23.0491 C   0  0  0  0  0  0  0  0  0  0  0  0
    9.8520    5.7359   23.2271 C   0  0  0  0  0  0  0  0  0  0  0  0
    8.3675    5.8878   23.3789 C   0  0  0  0  0  0  0  0  0  0  0  0
    7.4830    4.6766   23.3528 C   0  0  0  0  0  0  0  0  0  0  0  0
    8.0831    3.3134   23.1749 C   0  0  0  0  0  0  0  0  0  0  0  0
    9.5677    3.1615   23.0230 C   0  0  0  0  0  0  0  0  0  0  0  0
    5.8466   -4.6621   22.9688 C   0  0  0  0  0  0  0  0  0  0  0  0
    3.7234   -7.4324   24.8575 C   0  0  0  0  0  0  0  0  0  0  0  0
    4.5613   -6.7561   23.8132 N   0  0  0  0  0  0  0  0  0  0  0  0
    5.0087   -5.3384   24.0130 C   0  0  0  0  0  0  0  0  0  0  0  0
    4.6180   -4.5969   25.2571 O   0  0  0  0  0  0  0  0  0  0  0  0
    4.8177   -7.2427   22.9967 H   0  0  0  0  0  0  0  0  0  0  0  0
    6.1925   -1.4939   21.7322 C   0  0  0  0  0  0  0  0  0  0  0  0
    5.0411   -0.5878   21.4114 N   0  0  0  0  0  0  0  0  0  0  0  0
    4.3445   -0.4193   22.0864 H   0  0  0  0  0  0  0  0  0  0  0  0
    4.9509    0.0616   20.0623 C   0  0  0  0  0  0  0  0  0  0  0  0
    5.9317   -0.3027   18.9875 C   0  0  0  0  0  0  0  0  0  0  0  0
    5.8416    0.3466   17.6384 N   0  0  0  0  0  0  0  0  0  0  0  0
    4.7705    1.3604   17.3640 C   0  0  0  0  0  0  0  0  0  0  0  0
    3.7897    1.7247   18.4388 C   0  0  0  0  0  0  0  0  0  0  0  0
    3.8799    1.0753   19.7880 N   0  0  0  0  0  0  0  0  0  0  0  0
 29 30  1  0  0  0
 30 31  1  0  0  0
 31 32  2  0  0  0
 31 28  1  0  0  0
 28  1  1  0  0  0
  1  2  1  0  0  0
  3  2  1  0  0  0
  3  4  1  0  0  0
  4  5  2  0  0  0
  4  6  1  0  0  0
  6 18  1  0  0  0
 18 19  2  0  0  0
 19 20  1  0  0  0
 20 21  2  0  0  0
 21 22  1  0  0  0
 22 23  2  0  0  0
 23 24  1  0  0  0
 24 25  2  0  0  0
 25 26  1  0  0  0
 26 27  2  0  0  0
  6  7  1  0  0  0
  7  8  1  0  0  0
  8 34  1  0  0  0
 34 35  1  0  0  0
 35 37  1  0  0  0
 37 38  2  0  0  0
 38 39  1  0  0  0
 39 40  2  0  0  0
 40 41  1  0  0  0
 41 42  2  0  0  0
  3  9  1  0  0  0
  9 10  2  0  0  0
 10 11  1  0  0  0
 11 12  1  0  0  0
 11 13  2  0  0  0
 13 14  1  0  0  0
 14 15  2  0  0  0
 15 16  1  0  0  0
 16 17  2  0  0  0
 16  1  1  0  0  0
  8  3  1  0  0  0
 42 37  1  0  0  0
 15  9  1  0  0  0
 27 18  1  0  0  0
 27 22  1  0  0  0
 30 33  1  0  0  0
 35 36  1  0  0  0
M  END
> <minimizedAffinity>
-8.90020

> <CNNscore>
0.3534343243

> <CNNaffinity>
7.0483932495

> <CNN_VS>
2.4911441803

> <CNNaffinity_variance>
0.0836368948

$$$$



 42 47  0  0  0  0  0  0  0  0999 V2000
    9.5571    0.7040   23.1773 N   0  0  0  0  0  0  0  0  0  0  0  0
    8.3802   -0.2226   23.0977 C   0  0  0  0  0  0  0  0  0  0  0  0
    8.4325   -1.5611   23.7726 C   0  0  0  0  0  0  0  0  0  0  0  0
    8.3394   -2.9234   24.3935 C   0  0  0  0  0  0  0  0  0  0  0  0
    9.0037   -3.6877   25.0649 O   0  0  0  0  0  0  0  0  0  0  0  0
    6.9914   -3.4924   24.0628 N   0  0  0  0  0  0  0  0  0  0  0  0
    6.2515   -2.4818   23.2375 C   0  0  0  0  0  0  0  0  0  0  0  0
    7.1422   -1.2882   23.0582 C   0  0  0  0  0  0  0  0  0  0  0  0
    9.6618   -1.9731   24.5272 C   0  0  0  0  0  0  0  0  0  0  0  0
    9.7141   -3.3116   25.2021 C   0  0  0  0  0  0  0  0  0  0  0  0
   10.9434   -3.7235   25.9566 C   0  0  0  0  0  0  0  0  0  0  0  0
   10.9957   -5.0621   26.6316 Cl  0  0  0  0  0  0  0  0  0  0  0  0
   12.1202   -2.7969   26.0362 C   0  0  0  0  0  0  0  0  0  0  0  0
   12.0679   -1.4583   25.3613 C   0  0  0  0  0  0  0  0  0  0  0  0
   10.8387   -1.0465   24.6068 C   0  0  0  0  0  0  0  0  0  0  0  0
   10.7863    0.2921   23.9318 C   0  0  0  0  0  0  0  0  0  0  0  0
   11.9631    1.2188   24.0114 O   0  0  0  0  0  0  0  0  0  0  0  0
    6.4743   -4.8361   24.4836 C   0  0  0  0  0  0  0  0  0  0  0  0
    6.9749   -6.0778   23.8072 C   0  0  0  0  0  0  0  0  0  0  0  0
    6.4578   -7.4215   24.2280 N   0  0  0  0  0  0  0  0  0  0  0  0
    5.4400   -7.5235   25.3251 C   0  0  0  0  0  0  0  0  0  0  0  0
    4.9393   -6.2817   26.0014 C   0  0  0  0  0  0  0  0  0  0  0  0
    3.9214   -6.3837   27.0986 C   0  0  0  0  0  0  0  0  0  0  0  0
    3.4209   -5.1419   27.7748 C   0  0  0  0  0  0  0  0  0  0  0  0
    3.9380   -3.7982   27.3541 C   0  0  0  0  0  0  0  0  0  0  0  0
    4.9558   -3.6963   26.2570 C   0  0  0  0  0  0  0  0  0  0  0  0
    5.4565   -4.9380   25.5807 C   0  0  0  0  0  0  0  0  0  0  0  0
    9.5047    2.0426   22.5023 C   0  0  0  0  0  0  0  0  0  0  0  0
   11.6140    5.3400   23.1563 C   0  0  0  0  0  0  0  0  0  0  0  0
   10.4500    4.4000   23.0492 N   0  0  0  0  0  0  0  0  0  0  0  0
   10.6686    2.9827   22.6095 C   0  0  0  0  0  0  0  0  0  0  0  0
   12.0513    2.5053   22.2770 O   0  0  0  0  0  0  0  0  0  0  0  0
    9.5426    4.7132   23.2674 H   0  0  0  0  0  0  0  0  0  0  0  0
    6.8021   -0.0407   22.2978 C   0  0  0  0  0  0  0  0  0  0  0  0
    5.4621    0.0934   21.6375 N   0  0  0  0  0  0  0  0  0  0  0  0
    4.6403   -0.0739   22.1531 H   0  0  0  0  0  0  0  0  0  0  0  0
    5.3740    0.4822   20.1914 C   0  0  0  0  0  0  0  0  0  0  0  0
    6.4791    0.1128   19.2468 C   0  0  0  0  0  0  0  0  0  0  0  0
    6.3911    0.5016   17.8008 N   0  0  0  0  0  0  0  0  0  0  0  0
    5.1979    1.2600   17.2993 C   0  0  0  0  0  0  0  0  0  0  0  0
    4.0929    1.6294   18.2440 C   0  0  0  0  0  0  0  0  0  0  0  0
    4.1809    1.2406   19.6900 N   0  0  0  0  0  0  0  0  0  0  0  0
 29 30  1  0  0  0
 30 31  1  0  0  0
 31 32  2  0  0  0
 31 28  1  0  0  0
 28  1  1  0  0  0
  1  2  1  0  0  0
  3  2  1  0  0  0
  3  4  1  0  0  0
  4  5  2  0  0  0
  4  6  1  0  0  0
  6 18  1  0  0  0
 18 19  2  0  0  0
 19 20  1  0  0  0
 20 21  2  0  0  0
 21 22  1  0  0  0
 22 23  2  0  0  0
 23 24  1  0  0  0
 24 25  2  0  0  0
 25 26  1  0  0  0
 26 27  2  0  0  0
  6  7  1  0  0  0
  7  8  1  0  0  0
  8 34  1  0  0  0
 34 35  1  0  0  0
 35 37  1  0  0  0
 37 38  2  0  0  0
 38 39  1  0  0  0
 39 40  2  0  0  0
 40 41  1  0  0  0
 41 42  2  0  0  0
  3  9  1  0  0  0
  9 10  2  0  0  0
 10 11  1  0  0  0
 11 12  1  0  0  0
 11 13  2  0  0  0
 13 14  1  0  0  0
 14 15  2  0  0  0
 15 16  1  0  0  0
 16 17  2  0  0  0
 16  1  1  0  0  0
  8  3  1  0  0  0
 42 37  1  0  0  0
 15  9  1  0  0  0
 27 18  1  0  0  0
 27 22  1  0  0  0
 30 33  1  0  0  0
 35 36  1  0  0  0
M  END
> <minimizedAffinity>
-9.27965

> <CNNscore>
0.3120127916

> <CNNaffinity>
7.1045770645

> <CNN_VS>
2.2167189121

> <CNNaffinity_variance>
0.0252862312

$$$$



 42 47  0  0  0  0  0  0  0  0999 V2000
    9.6124   -1.6200   23.9752 N   0  0  0  0  0  0  0  0  0  0  0  0
    9.1709   -0.3299   23.3500 C   0  0  0  0  0  0  0  0  0  0  0  0
    7.7729    0.1687   23.5669 C   0  0  0  0  0  0  0  0  0  0  0  0
    6.4137    0.7903   23.6940 C   0  0  0  0  0  0  0  0  0  0  0  0
    5.3402    0.5809   24.2234 O   0  0  0  0  0  0  0  0  0  0  0  0
    6.4138    2.0694   22.9106 N   0  0  0  0  0  0  0  0  0  0  0  0
    7.7731    2.2385   22.2992 C   0  0  0  0  0  0  0  0  0  0  0  0
    8.6130    1.0638   22.7049 C   0  0  0  0  0  0  0  0  0  0  0  0
    6.8165   -0.6227   24.4089 C   0  0  0  0  0  0  0  0  0  0  0  0
    5.4185   -0.1240   24.6258 C   0  0  0  0  0  0  0  0  0  0  0  0
    4.4622   -0.9154   25.4678 C   0  0  0  0  0  0  0  0  0  0  0  0
    3.0642   -0.4168   25.6847 Cl  0  0  0  0  0  0  0  0  0  0  0  0
    4.9038   -2.2055   26.0929 C   0  0  0  0  0  0  0  0  0  0  0  0
    6.3017   -2.7041   25.8761 C   0  0  0  0  0  0  0  0  0  0  0  0
    7.2581   -1.9127   25.0341 C   0  0  0  0  0  0  0  0  0  0  0  0
    8.6561   -2.4114   24.8172 C   0  0  0  0  0  0  0  0  0  0  0  0
    9.0977   -3.7014   25.4423 O   0  0  0  0  0  0  0  0  0  0  0  0
    5.2575    3.0137   22.7642 C   0  0  0  0  0  0  0  0  0  0  0  0
    4.9945    4.0467   23.8196 C   0  0  0  0  0  0  0  0  0  0  0  0
    3.8383    4.9910   23.6732 N   0  0  0  0  0  0  0  0  0  0  0  0
    2.9451    4.9023   22.4715 C   0  0  0  0  0  0  0  0  0  0  0  0
    3.2081    3.8693   21.4161 C   0  0  0  0  0  0  0  0  0  0  0  0
    2.3148    3.7807   20.2142 C   0  0  0  0  0  0  0  0  0  0  0  0
    2.5779    2.7477   19.1589 C   0  0  0  0  0  0  0  0  0  0  0  0
    3.7341    1.8034   19.3053 C   0  0  0  0  0  0  0  0  0  0  0  0
    4.6273    1.8921   20.5070 C   0  0  0  0  0  0  0  0  0  0  0  0
    4.3643    2.9250   21.5624 C   0  0  0  0  0  0  0  0  0  0  0  0
   11.0105   -2.1186   23.7583 C   0  0  0  0  0  0  0  0  0  0  0  0
   13.7303   -2.5665   26.6134 C   0  0  0  0  0  0  0  0  0  0  0  0
   12.6568   -2.8862   25.6157 N   0  0  0  0  0  0  0  0  0  0  0  0
   12.0840   -1.7988   24.7559 C   0  0  0  0  0  0  0  0  0  0  0  0
   12.5848   -0.3915   24.8936 O   0  0  0  0  0  0  0  0  0  0  0  0
   12.3281   -3.8098   25.5254 H   0  0  0  0  0  0  0  0  0  0  0  0
   10.0423    0.8259   22.3166 C   0  0  0  0  0  0  0  0  0  0  0  0
   11.1405    1.5920   22.9923 N   0  0  0  0  0  0  0  0  0  0  0  0
   11.7559    1.1312   23.6072 H   0  0  0  0  0  0  0  0  0  0  0  0
   11.3013    3.0604   22.7313 C   0  0  0  0  0  0  0  0  0  0  0  0
   12.5688    3.5790   22.1194 C   0  0  0  0  0  0  0  0  0  0  0  0
   12.7295    5.0472   21.8583 N   0  0  0  0  0  0  0  0  0  0  0  0
   11.6227    5.9970   22.2091 C   0  0  0  0  0  0  0  0  0  0  0  0
   10.3552    5.4784   22.8210 C   0  0  0  0  0  0  0  0  0  0  0  0
   10.1945    4.0101   23.0821 N   0  0  0  0  0  0  0  0  0  0  0  0
 29 30  1  0  0  0
 30 31  1  0  0  0
 31 32  2  0  0  0
 31 28  1  0  0  0
 28  1  1  0  0  0
  1  2  1  0  0  0
  3  2  1  0  0  0
  3  4  1  0  0  0
  4  5  2  0  0  0
  4  6  1  0  0  0
  6 18  1  0  0  0
 18 19  2  0  0  0
 19 20  1  0  0  0
 20 21  2  0  0  0
 21 22  1  0  0  0
 22 23  2  0  0  0
 23 24  1  0  0  0
 24 25  2  0  0  0
 25 26  1  0  0  0
 26 27  2  0  0  0
  6  7  1  0  0  0
  7  8  1  0  0  0
  8 34  1  0  0  0
 34 35  1  0  0  0
 35 37  1  0  0  0
 37 38  2  0  0  0
 38 39  1  0  0  0
 39 40  2  0  0  0
 40 41  1  0  0  0
 41 42  2  0  0  0
  3  9  1  0  0  0
  9 10  2  0  0  0
 10 11  1  0  0  0
 11 12  1  0  0  0
 11 13  2  0  0  0
 13 14  1  0  0  0
 14 15  2  0  0  0
 15 16  1  0  0  0
 16 17  2  0  0  0
 16  1  1  0  0  0
  8  3  1  0  0  0
 42 37  1  0  0  0
 15  9  1  0  0  0
 27 18  1  0  0  0
 27 22  1  0  0  0
 30 33  1  0  0  0
 35 36  1  0  0  0
M  END
> <minimizedAffinity>
-7.41729

> <CNNscore>
0.2558372319

> <CNNaffinity>
7.0113334656

> <CNN_VS>
1.7937601805

> <CNNaffinity_variance>
0.1568227112

$$$$



 42 47  0  0  0  0  0  0  0  0999 V2000
    9.9716    0.7223   23.1073 N   0  0  0  0  0  0  0  0  0  0  0  0
    8.6164    0.1174   23.3251 C   0  0  0  0  0  0  0  0  0  0  0  0
    8.4585   -1.0579   24.2436 C   0  0  0  0  0  0  0  0  0  0  0  0
    8.1475   -2.2288   25.1280 C   0  0  0  0  0  0  0  0  0  0  0  0
    8.7089   -3.0090   25.8712 O   0  0  0  0  0  0  0  0  0  0  0  0
    6.6731   -2.4928   25.0462 N   0  0  0  0  0  0  0  0  0  0  0  0
    6.0730   -1.4850   24.1112 C   0  0  0  0  0  0  0  0  0  0  0  0
    7.1765   -0.5982   23.6152 C   0  0  0  0  0  0  0  0  0  0  0  0
    9.6559   -1.6282   24.9445 C   0  0  0  0  0  0  0  0  0  0  0  0
    9.4980   -2.8035   25.8631 C   0  0  0  0  0  0  0  0  0  0  0  0
   10.6953   -3.3737   26.5639 C   0  0  0  0  0  0  0  0  0  0  0  0
   10.5375   -4.5491   27.4825 Cl  0  0  0  0  0  0  0  0  0  0  0  0
   12.0505   -2.7688   26.3461 C   0  0  0  0  0  0  0  0  0  0  0  0
   12.2084   -1.5935   25.4275 C   0  0  0  0  0  0  0  0  0  0  0  0
   11.0111   -1.0233   24.7267 C   0  0  0  0  0  0  0  0  0  0  0  0
   11.1690    0.1521   23.8081 C   0  0  0  0  0  0  0  0  0  0  0  0
   12.5242    0.7570   23.5903 O   0  0  0  0  0  0  0  0  0  0  0  0
    5.9295   -3.5746   25.7720 C   0  0  0  0  0  0  0  0  0  0  0  0
    5.5546   -4.8377   25.0551 C   0  0  0  0  0  0  0  0  0  0  0  0
    4.8110   -5.9196   25.7809 N   0  0  0  0  0  0  0  0  0  0  0  0
    4.4423   -5.7382   27.2235 C   0  0  0  0  0  0  0  0  0  0  0  0
    4.8172   -4.4750   27.9403 C   0  0  0  0  0  0  0  0  0  0  0  0
    4.4484   -4.2937   29.3830 C   0  0  0  0  0  0  0  0  0  0  0  0
    4.8234   -3.0304   30.0998 C   0  0  0  0  0  0  0  0  0  0  0  0
    5.5670   -1.9486   29.3740 C   0  0  0  0  0  0  0  0  0  0  0  0
    5.9357   -2.1300   27.9314 C   0  0  0  0  0  0  0  0  0  0  0  0
    5.5608   -3.3932   27.2146 C   0  0  0  0  0  0  0  0  0  0  0  0
   10.1295    1.8976   22.1887 C   0  0  0  0  0  0  0  0  0  0  0  0
   10.6311    5.7475   23.0114 C   0  0  0  0  0  0  0  0  0  0  0  0
   10.8949    4.3600   22.5062 N   0  0  0  0  0  0  0  0  0  0  0  0
    9.8657    3.2851   22.6939 C   0  0  0  0  0  0  0  0  0  0  0  0
    8.5725    3.5978   23.3868 O   0  0  0  0  0  0  0  0  0  0  0  0
   11.7437    4.1548   22.0514 H   0  0  0  0  0  0  0  0  0  0  0  0
    7.0245    0.5473   22.6587 C   0  0  0  0  0  0  0  0  0  0  0  0
    5.6810    0.8585   22.0687 N   0  0  0  0  0  0  0  0  0  0  0  0
    4.9178    1.0550   22.6588 H   0  0  0  0  0  0  0  0  0  0  0  0
    5.5003    0.8704   20.5797 C   0  0  0  0  0  0  0  0  0  0  0  0
    6.5719    0.3140   19.6896 C   0  0  0  0  0  0  0  0  0  0  0  0
    6.3912    0.3259   18.2007 N   0  0  0  0  0  0  0  0  0  0  0  0
    5.1388    0.8943   17.6016 C   0  0  0  0  0  0  0  0  0  0  0  0
    4.0673    1.4506   18.4916 C   0  0  0  0  0  0  0  0  0  0  0  0
    4.2480    1.4387   19.9807 N   0  0  0  0  0  0  0  0  0  0  0  0
 29 30  1  0  0  0
 30 31  1  0  0  0
 31 32  2  0  0  0
 31 28  1  0  0  0
 28  1  1  0  0  0
  1  2  1  0  0  0
  3  2  1  0  0  0
  3  4  1  0  0  0
  4  5  2  0  0  0
  4  6  1  0  0  0
  6 18  1  0  0  0
 18 19  2  0  0  0
 19 20  1  0  0  0
 20 21  2  0  0  0
 21 22  1  0  0  0
 22 23  2  0  0  0
 23 24  1  0  0  0
 24 25  2  0  0  0
 25 26  1  0  0  0
 26 27  2  0  0  0
  6  7  1  0  0  0
  7  8  1  0  0  0
  8 34  1  0  0  0
 34 35  1  0  0  0
 35 37  1  0  0  0
 37 38  2  0  0  0
 38 39  1  0  0  0
 39 40  2  0  0  0
 40 41  1  0  0  0
 41 42  2  0  0  0
  3  9  1  0  0  0
  9 10  2  0  0  0
 10 11  1  0  0  0
 11 12  1  0  0  0
 11 13  2  0  0  0
 13 14  1  0  0  0
 14 15  2  0  0  0
 15 16  1  0  0  0
 16 17  2  0  0  0
 16  1  1  0  0  0
  8  3  1  0  0  0
 42 37  1  0  0  0
 15  9  1  0  0  0
 27 18  1  0  0  0
 27 22  1  0  0  0
 30 33  1  0  0  0
 35 36  1  0  0  0
M  END
> <minimizedAffinity>
-8.90135

> <CNNscore>
0.2338298857

> <CNNaffinity>
6.7934355736

> <CNN_VS>
1.5885082483

> <CNNaffinity_variance>
0.1728323996

$$$$



 42 47  0  0  0  0  0  0  0  0999 V2000
   10.0112    0.4421   22.7272 N   0  0  0  0  0  0  0  0  0  0  0  0
    8.8489   -0.4956   22.5863 C   0  0  0  0  0  0  0  0  0  0  0  0
    8.7992   -1.7558   23.3983 C   0  0  0  0  0  0  0  0  0  0  0  0
    8.6125   -3.0462   24.1399 C   0  0  0  0  0  0  0  0  0  0  0  0
    9.1740   -3.7317   24.9713 O   0  0  0  0  0  0  0  0  0  0  0  0
    7.3174   -3.6556   23.6911 N   0  0  0  0  0  0  0  0  0  0  0  0
    6.7037   -2.7418   22.6721 C   0  0  0  0  0  0  0  0  0  0  0  0
    7.6195   -1.5676   22.4912 C   0  0  0  0  0  0  0  0  0  0  0  0
    9.9119   -2.0783   24.3513 C   0  0  0  0  0  0  0  0  0  0  0  0
    9.8622   -3.3385   25.1633 C   0  0  0  0  0  0  0  0  0  0  0  0
   10.9748   -3.6611   26.1162 C   0  0  0  0  0  0  0  0  0  0  0  0
   10.9251   -4.9213   26.9283 Cl  0  0  0  0  0  0  0  0  0  0  0  0
   12.1371   -2.7234   26.2570 C   0  0  0  0  0  0  0  0  0  0  0  0
   12.1868   -1.4632   25.4450 C   0  0  0  0  0  0  0  0  0  0  0  0
   11.0742   -1.1407   24.4921 C   0  0  0  0  0  0  0  0  0  0  0  0
   11.1238    0.1196   23.6801 C   0  0  0  0  0  0  0  0  0  0  0  0
   12.2861    1.0572   23.8209 O   0  0  0  0  0  0  0  0  0  0  0  0
    6.7379   -4.9513   24.1761 C   0  0  0  0  0  0  0  0  0  0  0  0
    7.2509   -6.2522   23.6334 C   0  0  0  0  0  0  0  0  0  0  0  0
    6.6713   -7.5479   24.1184 N   0  0  0  0  0  0  0  0  0  0  0  0
    5.5787   -7.5427   25.1461 C   0  0  0  0  0  0  0  0  0  0  0  0
    5.0657   -6.2418   25.6888 C   0  0  0  0  0  0  0  0  0  0  0  0
    3.9730   -6.2366   26.7165 C   0  0  0  0  0  0  0  0  0  0  0  0
    3.4600   -4.9357   27.2591 C   0  0  0  0  0  0  0  0  0  0  0  0
    4.0396   -3.6400   26.7741 C   0  0  0  0  0  0  0  0  0  0  0  0
    5.1322   -3.6452   25.7464 C   0  0  0  0  0  0  0  0  0  0  0  0
    5.6452   -4.9461   25.2037 C   0  0  0  0  0  0  0  0  0  0  0  0
   10.0609    1.7023   21.9151 C   0  0  0  0  0  0  0  0  0  0  0  0
   10.5321    5.4893   23.0046 C   0  0  0  0  0  0  0  0  0  0  0  0
   10.7738    4.1631   22.3467 N   0  0  0  0  0  0  0  0  0  0  0  0
    9.8191    3.0285   22.5730 C   0  0  0  0  0  0  0  0  0  0  0  0
    8.6227    3.2200   23.4573 O   0  0  0  0  0  0  0  0  0  0  0  0
   11.5590    4.0374   21.7663 H   0  0  0  0  0  0  0  0  0  0  0  0
    7.3950   -0.4088   21.5656 C   0  0  0  0  0  0  0  0  0  0  0  0
    6.7230   -0.6252   20.2422 N   0  0  0  0  0  0  0  0  0  0  0  0
    7.0154   -1.3602   19.6560 H   0  0  0  0  0  0  0  0  0  0  0  0
    5.6056    0.2782   19.8118 C   0  0  0  0  0  0  0  0  0  0  0  0
    5.3683    0.5350   18.3531 C   0  0  0  0  0  0  0  0  0  0  0  0
    4.2509    1.4383   17.9227 N   0  0  0  0  0  0  0  0  0  0  0  0
    3.3707    2.0849   18.9509 C   0  0  0  0  0  0  0  0  0  0  0  0
    3.6080    1.8281   20.4096 C   0  0  0  0  0  0  0  0  0  0  0  0
    4.7255    0.9248   20.8400 N   0  0  0  0  0  0  0  0  0  0  0  0
 29 30  1  0  0  0
 30 31  1  0  0  0
 31 32  2  0  0  0
 31 28  1  0  0  0
 28  1  1  0  0  0
  1  2  1  0  0  0
  3  2  1  0  0  0
  3  4  1  0  0  0
  4  5  2  0  0  0
  4  6  1  0  0  0
  6 18  1  0  0  0
 18 19  2  0  0  0
 19 20  1  0  0  0
 20 21  2  0  0  0
 21 22  1  0  0  0
 22 23  2  0  0  0
 23 24  1  0  0  0
 24 25  2  0  0  0
 25 26  1  0  0  0
 26 27  2  0  0  0
  6  7  1  0  0  0
  7  8  1  0  0  0
  8 34  1  0  0  0
 34 35  1  0  0  0
 35 37  1  0  0  0
 37 38  2  0  0  0
 38 39  1  0  0  0
 39 40  2  0  0  0
 40 41  1  0  0  0
 41 42  2  0  0  0
  3  9  1  0  0  0
  9 10  2  0  0  0
 10 11  1  0  0  0
 11 12  1  0  0  0
 11 13  2  0  0  0
 13 14  1  0  0  0
 14 15  2  0  0  0
 15 16  1  0  0  0
 16 17  2  0  0  0
 16  1  1  0  0  0
  8  3  1  0  0  0
 42 37  1  0  0  0
 15  9  1  0  0  0
 27 18  1  0  0  0
 27 22  1  0  0  0
 30 33  1  0  0  0
 35 36  1  0  0  0
M  END
> <minimizedAffinity>
-9.11802

> <CNNscore>
0.2185240835

> <CNNaffinity>
6.9901070595

> <CNN_VS>
1.5275067091

> <CNNaffinity_variance>
0.1066699624

$$$$



 42 47  0  0  0  0  0  0  0  0999 V2000
    6.5190    1.6306   21.3867 N   0  0  0  0  0  0  0  0  0  0  0  0
    7.8323    1.5541   22.1073 C   0  0  0  0  0  0  0  0  0  0  0  0
    8.3154    0.2413   22.6487 C   0  0  0  0  0  0  0  0  0  0  0  0
    8.9253   -0.9943   23.2414 C   0  0  0  0  0  0  0  0  0  0  0  0
    8.6892   -2.1793   23.3696 O   0  0  0  0  0  0  0  0  0  0  0  0
   10.2363   -0.6123   23.8621 N   0  0  0  0  0  0  0  0  0  0  0  0
   10.4367    0.8595   23.6531 C   0  0  0  0  0  0  0  0  0  0  0  0
    9.2496    1.3870   22.9032 C   0  0  0  0  0  0  0  0  0  0  0  0
    7.4852   -0.9951   22.4694 C   0  0  0  0  0  0  0  0  0  0  0  0
    7.9683   -2.3079   23.0108 C   0  0  0  0  0  0  0  0  0  0  0  0
    7.1380   -3.5442   22.8315 C   0  0  0  0  0  0  0  0  0  0  0  0
    7.6211   -4.8571   23.3728 Cl  0  0  0  0  0  0  0  0  0  0  0  0
    5.8247   -3.4677   22.1108 C   0  0  0  0  0  0  0  0  0  0  0  0
    5.3416   -2.1549   21.5695 C   0  0  0  0  0  0  0  0  0  0  0  0
    6.1719   -0.9186   21.7488 C   0  0  0  0  0  0  0  0  0  0  0  0
    5.6888    0.3943   21.2074 C   0  0  0  0  0  0  0  0  0  0  0  0
    4.3754    0.4708   20.4868 O   0  0  0  0  0  0  0  0  0  0  0  0
   11.1809   -1.5393   24.5680 C   0  0  0  0  0  0  0  0  0  0  0  0
   12.6233   -1.5940   24.1597 C   0  0  0  0  0  0  0  0  0  0  0  0
   13.5680   -2.5210   24.8656 N   0  0  0  0  0  0  0  0  0  0  0  0
   13.0703   -3.3933   25.9797 C   0  0  0  0  0  0  0  0  0  0  0  0
   11.6280   -3.3386   26.3880 C   0  0  0  0  0  0  0  0  0  0  0  0
   11.1303   -4.2110   27.5022 C   0  0  0  0  0  0  0  0  0  0  0  0
    9.6879   -4.1563   27.9104 C   0  0  0  0  0  0  0  0  0  0  0  0
    8.7433   -3.2293   27.2046 C   0  0  0  0  0  0  0  0  0  0  0  0
    9.2409   -2.3569   26.0904 C   0  0  0  0  0  0  0  0  0  0  0  0
   10.6833   -2.4116   25.6821 C   0  0  0  0  0  0  0  0  0  0  0  0
    6.0359    2.9436   20.8454 C   0  0  0  0  0  0  0  0  0  0  0  0
    4.3460    5.0764   23.7341 C   0  0  0  0  0  0  0  0  0  0  0  0
    5.3596    4.2774   22.9698 N   0  0  0  0  0  0  0  0  0  0  0  0
    5.0223    3.7426   21.6096 C   0  0  0  0  0  0  0  0  0  0  0  0
    3.6714    4.0069   21.0136 O   0  0  0  0  0  0  0  0  0  0  0  0
    6.2462    4.1039   23.3610 H   0  0  0  0  0  0  0  0  0  0  0  0
    9.0344    2.8104   22.4817 C   0  0  0  0  0  0  0  0  0  0  0  0
    9.3783    3.9302   23.4185 N   0  0  0  0  0  0  0  0  0  0  0  0
    9.0194    3.9328   24.3352 H   0  0  0  0  0  0  0  0  0  0  0  0
   10.2689    5.0461   22.9586 C   0  0  0  0  0  0  0  0  0  0  0  0
   11.6229    4.7396   22.3906 C   0  0  0  0  0  0  0  0  0  0  0  0
   12.5135    5.8554   21.9308 N   0  0  0  0  0  0  0  0  0  0  0  0
   12.0501    7.2780   22.0388 C   0  0  0  0  0  0  0  0  0  0  0  0
   10.6961    7.5846   22.6067 C   0  0  0  0  0  0  0  0  0  0  0  0
    9.8055    6.4687   23.0666 N   0  0  0  0  0  0  0  0  0  0  0  0
 29 30  1  0  0  0
 30 31  1  0  0  0
 31 32  2  0  0  0
 31 28  1  0  0  0
 28  1  1  0  0  0
  1  2  1  0  0  0
  3  2  1  0  0  0
  3  4  1  0  0  0
  4  5  2  0  0  0
  4  6  1  0  0  0
  6 18  1  0  0  0
 18 19  2  0  0  0
 19 20  1  0  0  0
 20 21  2  0  0  0
 21 22  1  0  0  0
 22 23  2  0  0  0
 23 24  1  0  0  0
 24 25  2  0  0  0
 25 26  1  0  0  0
 26 27  2  0  0  0
  6  7  1  0  0  0
  7  8  1  0  0  0
  8 34  1  0  0  0
 34 35  1  0  0  0
 35 37  1  0  0  0
 37 38  2  0  0  0
 38 39  1  0  0  0
 39 40  2  0  0  0
 40 41  1  0  0  0
 41 42  2  0  0  0
  3  9  1  0  0  0
  9 10  2  0  0  0
 10 11  1  0  0  0
 11 12  1  0  0  0
 11 13  2  0  0  0
 13 14  1  0  0  0
 14 15  2  0  0  0
 15 16  1  0  0  0
 16 17  2  0  0  0
 16  1  1  0  0  0
  8  3  1  0  0  0
 42 37  1  0  0  0
 15  9  1  0  0  0
 27 18  1  0  0  0
 27 22  1  0  0  0
 30 33  1  0  0  0
 35 36  1  0  0  0
M  END
> <minimizedAffinity>
-7.97691

> <CNNscore>
0.1887294948

> <CNNaffinity>
6.8759069443

> <CNN_VS>
1.2976864576

> <CNNaffinity_variance>
0.3144328594

$$$$



 42 47  0  0  0  0  0  0  0  0999 V2000
    5.4777    3.6802   22.9724 N   0  0  0  0  0  0  0  0  0  0  0  0
    6.1039    2.3192   23.0472 C   0  0  0  0  0  0  0  0  0  0  0  0
    7.5965    2.1825   23.1049 C   0  0  0  0  0  0  0  0  0  0  0  0
    9.0664    1.8905   23.1679 C   0  0  0  0  0  0  0  0  0  0  0  0
   10.1317    2.4747   23.1827 O   0  0  0  0  0  0  0  0  0  0  0  0
    9.2411    0.4020   23.2318 N   0  0  0  0  0  0  0  0  0  0  0  0
    7.8790   -0.2259   23.2082 C   0  0  0  0  0  0  0  0  0  0  0  0
    6.8627    0.8745   23.1299 C   0  0  0  0  0  0  0  0  0  0  0  0
    8.4630    3.4068   23.0879 C   0  0  0  0  0  0  0  0  0  0  0  0
    9.9557    3.2701   23.1457 C   0  0  0  0  0  0  0  0  0  0  0  0
   10.8221    4.4944   23.1287 C   0  0  0  0  0  0  0  0  0  0  0  0
   12.3148    4.3577   23.1864 Cl  0  0  0  0  0  0  0  0  0  0  0  0
   10.1960    5.8554   23.0539 C   0  0  0  0  0  0  0  0  0  0  0  0
    8.7033    5.9921   22.9961 C   0  0  0  0  0  0  0  0  0  0  0  0
    7.8369    4.7678   23.0132 C   0  0  0  0  0  0  0  0  0  0  0  0
    6.3442    4.9045   22.9554 C   0  0  0  0  0  0  0  0  0  0  0  0
    5.7180    6.2655   22.8806 O   0  0  0  0  0  0  0  0  0  0  0  0
   10.5483   -0.3299   23.3061 C   0  0  0  0  0  0  0  0  0  0  0  0
   11.6283   -0.0396   22.3065 C   0  0  0  0  0  0  0  0  0  0  0  0
   12.9355   -0.7715   22.3808 N   0  0  0  0  0  0  0  0  0  0  0  0
   13.1626   -1.7938   23.4547 C   0  0  0  0  0  0  0  0  0  0  0  0
   12.0825   -2.0842   24.4543 C   0  0  0  0  0  0  0  0  0  0  0  0
   12.3096   -3.1066   25.5283 C   0  0  0  0  0  0  0  0  0  0  0  0
   11.2295   -3.3968   26.5278 C   0  0  0  0  0  0  0  0  0  0  0  0
    9.9223   -2.6649   26.4535 C   0  0  0  0  0  0  0  0  0  0  0  0
    9.6952   -1.6426   25.3796 C   0  0  0  0  0  0  0  0  0  0  0  0
   10.7753   -1.3522   24.3800 C   0  0  0  0  0  0  0  0  0  0  0  0
    3.9850    3.8169   22.9146 C   0  0  0  0  0  0  0  0  0  0  0  0
    2.2926    6.9282   21.1243 C   0  0  0  0  0  0  0  0  0  0  0  0
    2.9271    6.0736   22.1812 N   0  0  0  0  0  0  0  0  0  0  0  0
    3.3505    4.6715   21.8577 C   0  0  0  0  0  0  0  0  0  0  0  0
    3.1394    4.1239   20.4772 O   0  0  0  0  0  0  0  0  0  0  0  0
    3.0657    6.4330   23.0872 H   0  0  0  0  0  0  0  0  0  0  0  0
    5.3738    0.6979   23.0844 C   0  0  0  0  0  0  0  0  0  0  0  0
    4.7587   -0.2271   22.0765 N   0  0  0  0  0  0  0  0  0  0  0  0
    4.2709   -1.0279   22.3766 H   0  0  0  0  0  0  0  0  0  0  0  0
    4.8867    0.0679   20.6114 C   0  0  0  0  0  0  0  0  0  0  0  0
    5.9564   -0.6033   19.8019 C   0  0  0  0  0  0  0  0  0  0  0  0
    6.0844   -0.3084   18.3368 N   0  0  0  0  0  0  0  0  0  0  0  0
    5.1428    0.6578   17.6811 C   0  0  0  0  0  0  0  0  0  0  0  0
    4.0731    1.3290   18.4906 C   0  0  0  0  0  0  0  0  0  0  0  0
    3.9451    1.0340   19.9557 N   0  0  0  0  0  0  0  0  0  0  0  0
 29 30  1  0  0  0
 30 31  1  0  0  0
 31 32  2  0  0  0
 31 28  1  0  0  0
 28  1  1  0  0  0
  1  2  1  0  0  0
  3  2  1  0  0  0
  3  4  1  0  0  0
  4  5  2  0  0  0
  4  6  1  0  0  0
  6 18  1  0  0  0
 18 19  2  0  0  0
 19 20  1  0  0  0
 20 21  2  0  0  0
 21 22  1  0  0  0
 22 23  2  0  0  0
 23 24  1  0  0  0
 24 25  2  0  0  0
 25 26  1  0  0  0
 26 27  2  0  0  0
  6  7  1  0  0  0
  7  8  1  0  0  0
  8 34  1  0  0  0
 34 35  1  0  0  0
 35 37  1  0  0  0
 37 38  2  0  0  0
 38 39  1  0  0  0
 39 40  2  0  0  0
 40 41  1  0  0  0
 41 42  2  0  0  0
  3  9  1  0  0  0
  9 10  2  0  0  0
 10 11  1  0  0  0
 11 12  1  0  0  0
 11 13  2  0  0  0
 13 14  1  0  0  0
 14 15  2  0  0  0
 15 16  1  0  0  0
 16 17  2  0  0  0
 16  1  1  0  0  0
  8  3  1  0  0  0
 42 37  1  0  0  0
 15  9  1  0  0  0
 27 18  1  0  0  0
 27 22  1  0  0  0
 30 33  1  0  0  0
 35 36  1  0  0  0
M  END
> <minimizedAffinity>
-8.23820

> <CNNscore>
0.1514722109

> <CNNaffinity>
6.5924081802

> <CNN_VS>
0.9985666275

> <CNNaffinity_variance>
0.1634333581

$$$$



 42 47  0  0  0  0  0  0  0  0999 V2000
   10.1830    0.9714   23.0532 N   0  0  0  0  0  0  0  0  0  0  0  0
    8.8091    0.4007   23.2445 C   0  0  0  0  0  0  0  0  0  0  0  0
    8.6115   -0.8014   24.1196 C   0  0  0  0  0  0  0  0  0  0  0  0
    8.2611   -1.9932   24.9602 C   0  0  0  0  0  0  0  0  0  0  0  0
    8.7953   -2.8165   25.6767 O   0  0  0  0  0  0  0  0  0  0  0  0
    6.7798   -2.2089   24.8641 N   0  0  0  0  0  0  0  0  0  0  0  0
    6.2147   -1.1503   23.9641 C   0  0  0  0  0  0  0  0  0  0  0  0
    7.3468   -0.2804   23.5040 C   0  0  0  0  0  0  0  0  0  0  0  0
    9.7879   -1.4329   24.8034 C   0  0  0  0  0  0  0  0  0  0  0  0
    9.5903   -2.6350   25.6785 C   0  0  0  0  0  0  0  0  0  0  0  0
   10.7666   -3.2664   26.3622 C   0  0  0  0  0  0  0  0  0  0  0  0
   10.5691   -4.4686   27.2373 Cl  0  0  0  0  0  0  0  0  0  0  0  0
   12.1406   -2.6957   26.1708 C   0  0  0  0  0  0  0  0  0  0  0  0
   12.3382   -1.4936   25.2957 C   0  0  0  0  0  0  0  0  0  0  0  0
   11.1618   -0.8622   24.6120 C   0  0  0  0  0  0  0  0  0  0  0  0
   11.3594    0.3400   23.7369 C   0  0  0  0  0  0  0  0  0  0  0  0
   12.7333    0.9107   23.5455 O   0  0  0  0  0  0  0  0  0  0  0  0
    6.0004   -3.2929   25.5480 C   0  0  0  0  0  0  0  0  0  0  0  0
    5.1239   -2.9616   26.7193 C   0  0  0  0  0  0  0  0  0  0  0  0
    4.3445   -4.0455   27.4032 N   0  0  0  0  0  0  0  0  0  0  0  0
    4.4418   -5.4608   26.9157 C   0  0  0  0  0  0  0  0  0  0  0  0
    5.3183   -5.7920   25.7444 C   0  0  0  0  0  0  0  0  0  0  0  0
    5.4155   -7.2074   25.2569 C   0  0  0  0  0  0  0  0  0  0  0  0
    6.2921   -7.5386   24.0856 C   0  0  0  0  0  0  0  0  0  0  0  0
    7.0714   -6.4546   23.4018 C   0  0  0  0  0  0  0  0  0  0  0  0
    6.9742   -5.0394   23.8892 C   0  0  0  0  0  0  0  0  0  0  0  0
    6.0977   -4.7081   25.0605 C   0  0  0  0  0  0  0  0  0  0  0  0
   10.3806    2.1736   22.1780 C   0  0  0  0  0  0  0  0  0  0  0  0
    9.7831    5.9063   23.3865 C   0  0  0  0  0  0  0  0  0  0  0  0
    9.5422    4.5606   22.7691 N   0  0  0  0  0  0  0  0  0  0  0  0
   10.6215    3.5193   22.7954 C   0  0  0  0  0  0  0  0  0  0  0  0
   11.9418    3.8236   23.4391 O   0  0  0  0  0  0  0  0  0  0  0  0
    8.6757    4.3609   22.3466 H   0  0  0  0  0  0  0  0  0  0  0  0
    7.2339    0.9028   22.5889 C   0  0  0  0  0  0  0  0  0  0  0  0
    5.9065    1.2653   21.9919 N   0  0  0  0  0  0  0  0  0  0  0  0
    5.1915    1.6264   22.5643 H   0  0  0  0  0  0  0  0  0  0  0  0
    5.6683    1.0776   20.5229 C   0  0  0  0  0  0  0  0  0  0  0  0
    6.6669    0.3290   19.6909 C   0  0  0  0  0  0  0  0  0  0  0  0
    6.4288    0.1413   18.2219 N   0  0  0  0  0  0  0  0  0  0  0  0
    5.1921    0.7023   17.5848 C   0  0  0  0  0  0  0  0  0  0  0  0
    4.1935    1.4510   18.4169 C   0  0  0  0  0  0  0  0  0  0  0  0
    4.4316    1.6386   19.8859 N   0  0  0  0  0  0  0  0  0  0  0  0
 29 30  1  0  0  0
 30 31  1  0  0  0
 31 32  2  0  0  0
 31 28  1  0  0  0
 28  1  1  0  0  0
  1  2  1  0  0  0
  3  2  1  0  0  0
  3  4  1  0  0  0
  4  5  2  0  0  0
  4  6  1  0  0  0
  6 18  1  0  0  0
 18 19  2  0  0  0
 19 20  1  0  0  0
 20 21  2  0  0  0
 21 22  1  0  0  0
 22 23  2  0  0  0
 23 24  1  0  0  0
 24 25  2  0  0  0
 25 26  1  0  0  0
 26 27  2  0  0  0
  6  7  1  0  0  0
  7  8  1  0  0  0
  8 34  1  0  0  0
 34 35  1  0  0  0
 35 37  1  0  0  0
 37 38  2  0  0  0
 38 39  1  0  0  0
 39 40  2  0  0  0
 40 41  1  0  0  0
 41 42  2  0  0  0
  3  9  1  0  0  0
  9 10  2  0  0  0
 10 11  1  0  0  0
 11 12  1  0  0  0
 11 13  2  0  0  0
 13 14  1  0  0  0
 14 15  2  0  0  0
 15 16  1  0  0  0
 16 17  2  0  0  0
 16  1  1  0  0  0
  8  3  1  0  0  0
 42 37  1  0  0  0
 15  9  1  0  0  0
 27 18  1  0  0  0
 27 22  1  0  0  0
 30 33  1  0  0  0
 35 36  1  0  0  0
M  END
> <minimizedAffinity>
-9.24050

> <CNNscore>
0.1468960643

> <CNNaffinity>
6.9170355797

> <CNN_VS>
1.0160852671

> <CNNaffinity_variance>
0.1449827850

$$$$
