


 42 47  0  0  0  0  0  0  0  0999 V2000
   -7.1622   -1.0833  -23.6045 N   0  0  0  0  0  0  0  0  0  0  0  0
   -7.5986    0.3465  -23.7280 C   0  0  0  0  0  0  0  0  0  0  0  0
   -9.0559    0.6946  -23.6580 C   0  0  0  0  0  0  0  0  0  0  0  0
  -10.4700    1.1924  -23.6075 C   0  0  0  0  0  0  0  0  0  0  0  0
  -11.6016    0.7694  -23.4776 O   0  0  0  0  0  0  0  0  0  0  0  0
  -10.4429    2.6831  -23.7720 N   0  0  0  0  0  0  0  0  0  0  0  0
   -9.0120    3.1066  -23.9241 C   0  0  0  0  0  0  0  0  0  0  0  0
   -8.1548    1.8777  -23.8537 C   0  0  0  0  0  0  0  0  0  0  0  0
  -10.0770   -0.3871  -23.4645 C   0  0  0  0  0  0  0  0  0  0  0  0
  -11.5343   -0.0390  -23.3945 C   0  0  0  0  0  0  0  0  0  0  0  0
  -12.5553   -1.1207  -23.2010 C   0  0  0  0  0  0  0  0  0  0  0  0
  -14.0127   -0.7726  -23.1310 Cl  0  0  0  0  0  0  0  0  0  0  0  0
  -12.1190   -2.5505  -23.0775 C   0  0  0  0  0  0  0  0  0  0  0  0
  -10.6616   -2.8986  -23.1475 C   0  0  0  0  0  0  0  0  0  0  0  0
   -9.6406   -1.8169  -23.3410 C   0  0  0  0  0  0  0  0  0  0  0  0
   -8.1832   -2.1650  -23.4110 C   0  0  0  0  0  0  0  0  0  0  0  0
   -7.7469   -3.5948  -23.2875 O   0  0  0  0  0  0  0  0  0  0  0  0
  -11.6369    3.5909  -23.7825 C   0  0  0  0  0  0  0  0  0  0  0  0
  -12.4791    3.7366  -22.5498 C   0  0  0  0  0  0  0  0  0  0  0  0
  -13.6732    4.6444  -22.5603 N   0  0  0  0  0  0  0  0  0  0  0  0
  -14.0251    5.4064  -23.8035 C   0  0  0  0  0  0  0  0  0  0  0  0
  -13.1829    5.2606  -25.0362 C   0  0  0  0  0  0  0  0  0  0  0  0
  -13.5348    6.0227  -26.2794 C   0  0  0  0  0  0  0  0  0  0  0  0
  -12.6926    5.8769  -27.5120 C   0  0  0  0  0  0  0  0  0  0  0  0
  -11.4985    4.9691  -27.5015 C   0  0  0  0  0  0  0  0  0  0  0  0
  -11.1466    4.2071  -26.2583 C   0  0  0  0  0  0  0  0  0  0  0  0
  -11.9888    4.3529  -25.0257 C   0  0  0  0  0  0  0  0  0  0  0  0
   -5.7048   -1.4314  -23.6745 C   0  0  0  0  0  0  0  0  0  0  0  0
   -4.4660   -3.9275  -26.5003 C   0  0  0  0  0  0  0  0  0  0  0  0
   -5.0545   -3.4173  -25.2183 N   0  0  0  0  0  0  0  0  0  0  0  0
   -5.1163   -1.9416  -24.9564 C   0  0  0  0  0  0  0  0  0  0  0  0
   -4.5897   -0.9761  -25.9765 O   0  0  0  0  0  0  0  0  0  0  0  0
   -5.4002   -4.0509  -24.5488 H   0  0  0  0  0  0  0  0  0  0  0  0
   -6.6591    1.8387  -23.9602 C   0  0  0  0  0  0  0  0  0  0  0  0
   -5.8295    2.8660  -23.2488 N   0  0  0  0  0  0  0  0  0  0  0  0
   -5.8524    3.8058  -23.5413 H   0  0  0  0  0  0  0  0  0  0  0  0
   -4.9648    2.4616  -22.0918 C   0  0  0  0  0  0  0  0  0  0  0  0
   -3.6675    3.1716  -21.8408 C   0  0  0  0  0  0  0  0  0  0  0  0
   -2.8028    2.7673  -20.6839 N   0  0  0  0  0  0  0  0  0  0  0  0
   -3.2354    1.6529  -19.7776 C   0  0  0  0  0  0  0  0  0  0  0  0
   -4.5327    0.9429  -20.0286 C   0  0  0  0  0  0  0  0  0  0  0  0
   -5.3973    1.3473  -21.1856 N   0  0  0  0  0  0  0  0  0  0  0  0
 29 30  1  0  0  0
 30 31  1  0  0  0
 31 32  2  0  0  0
 31 28  1  0  0  0
 28  1  1  0  0  0
  1  2  1  0  0  0
  3  2  1  0  0  0
  3  4  1  0  0  0
  4  5  2  0  0  0
  4  6  1  0  0  0
  6 18  1  0  0  0
 18 19  2  0  0  0
 19 20  1  0  0  0
 20 21  2  0  0  0
 21 22  1  0  0  0
 22 23  2  0  0  0
 23 24  1  0  0  0
 24 25  2  0  0  0
 25 26  1  0  0  0
 26 27  2  0  0  0
  6  7  1  0  0  0
  7  8  1  0  0  0
  8 34  1  0  0  0
 34 35  1  0  0  0
 35 37  1  0  0  0
 37 38  2  0  0  0
 38 39  1  0  0  0
 39 40  2  0  0  0
 40 41  1  0  0  0
 41 42  2  0  0  0
  3  9  1  0  0  0
  9 10  2  0  0  0
 10 11  1  0  0  0
 11 12  1  0  0  0
 11 13  2  0  0  0
 13 14  1  0  0  0
 14 15  2  0  0  0
 15 16  1  0  0  0
 16 17  2  0  0  0
 16  1  1  0  0  0
  8  3  1  0  0  0
 42 37  1  0  0  0
 15  9  1  0  0  0
 27 18  1  0  0  0
 27 22  1  0  0  0
 30 33  1  0  0  0
 35 36  1  0  0  0
M  END
> <minimizedAffinity>
-7.74668

> <CNNscore>
0.7034445405

> <CNNaffinity>
7.0871505737

> <CNN_VS>
4.9854173660

> <CNNaffinity_variance>
0.0512887053

$$$$



 42 47  0  0  0  0  0  0  0  0999 V2000
   -7.3163   -1.2209  -22.4421 N   0  0  0  0  0  0  0  0  0  0  0  0
   -7.5480    0.2254  -22.7654 C   0  0  0  0  0  0  0  0  0  0  0  0
   -8.9353    0.7159  -23.0564 C   0  0  0  0  0  0  0  0  0  0  0  0
  -10.2593    1.3487  -23.3673 C   0  0  0  0  0  0  0  0  0  0  0  0
  -11.4325    1.0500  -23.4698 O   0  0  0  0  0  0  0  0  0  0  0  0
  -10.0260    2.8072  -23.6286 N   0  0  0  0  0  0  0  0  0  0  0  0
   -8.5578    3.0759  -23.4792 C   0  0  0  0  0  0  0  0  0  0  0  0
   -7.8838    1.7834  -23.1256 C   0  0  0  0  0  0  0  0  0  0  0  0
  -10.0910   -0.2399  -23.0242 C   0  0  0  0  0  0  0  0  0  0  0  0
  -11.4783    0.2506  -23.3152 C   0  0  0  0  0  0  0  0  0  0  0  0
  -12.6338   -0.7052  -23.2829 C   0  0  0  0  0  0  0  0  0  0  0  0
  -14.0212   -0.2147  -23.5740 Cl  0  0  0  0  0  0  0  0  0  0  0  0
  -12.4021   -2.1515  -22.9597 C   0  0  0  0  0  0  0  0  0  0  0  0
  -11.0148   -2.6420  -22.6686 C   0  0  0  0  0  0  0  0  0  0  0  0
   -9.8592   -1.6862  -22.7009 C   0  0  0  0  0  0  0  0  0  0  0  0
   -8.4718   -2.1767  -22.4099 C   0  0  0  0  0  0  0  0  0  0  0  0
   -8.2401   -3.6230  -22.0866 O   0  0  0  0  0  0  0  0  0  0  0  0
  -11.0765    3.8194  -23.9780 C   0  0  0  0  0  0  0  0  0  0  0  0
  -12.0030    4.3355  -22.9172 C   0  0  0  0  0  0  0  0  0  0  0  0
  -13.0534    5.3476  -23.2666 N   0  0  0  0  0  0  0  0  0  0  0  0
  -13.1774    5.8437  -24.6767 C   0  0  0  0  0  0  0  0  0  0  0  0
  -12.2508    5.3276  -25.7375 C   0  0  0  0  0  0  0  0  0  0  0  0
  -12.3748    5.8238  -27.1477 C   0  0  0  0  0  0  0  0  0  0  0  0
  -11.4482    5.3076  -28.2084 C   0  0  0  0  0  0  0  0  0  0  0  0
  -10.3978    4.2955  -27.8590 C   0  0  0  0  0  0  0  0  0  0  0  0
  -10.2738    3.7994  -26.4489 C   0  0  0  0  0  0  0  0  0  0  0  0
  -11.2004    4.3155  -25.3881 C   0  0  0  0  0  0  0  0  0  0  0  0
   -5.9289   -1.7114  -22.1511 C   0  0  0  0  0  0  0  0  0  0  0  0
   -5.5556   -5.6397  -21.7277 C   0  0  0  0  0  0  0  0  0  0  0  0
   -5.7582   -4.2953  -22.3614 N   0  0  0  0  0  0  0  0  0  0  0  0
   -5.7262   -3.0558  -21.5174 C   0  0  0  0  0  0  0  0  0  0  0  0
   -5.4915   -3.1606  -20.0395 O   0  0  0  0  0  0  0  0  0  0  0  0
   -5.9123   -4.2265  -23.3314 H   0  0  0  0  0  0  0  0  0  0  0  0
   -6.4158    1.5919  -22.8836 C   0  0  0  0  0  0  0  0  0  0  0  0
   -5.6702    2.5482  -22.0007 N   0  0  0  0  0  0  0  0  0  0  0  0
   -6.1136    3.3641  -21.6738 H   0  0  0  0  0  0  0  0  0  0  0  0
   -4.2491    2.2614  -21.6159 C   0  0  0  0  0  0  0  0  0  0  0  0
   -3.9300    1.7754  -20.2332 C   0  0  0  0  0  0  0  0  0  0  0  0
   -2.5089    1.4886  -19.8484 N   0  0  0  0  0  0  0  0  0  0  0  0
   -1.4068    1.6877  -20.8463 C   0  0  0  0  0  0  0  0  0  0  0  0
   -1.7259    2.1737  -22.2290 C   0  0  0  0  0  0  0  0  0  0  0  0
   -3.1471    2.4605  -22.6138 N   0  0  0  0  0  0  0  0  0  0  0  0
 29 30  1  0  0  0
 30 31  1  0  0  0
 31 32  2  0  0  0
 31 28  1  0  0  0
 28  1  1  0  0  0
  1  2  1  0  0  0
  3  2  1  0  0  0
  3  4  1  0  0  0
  4  5  2  0  0  0
  4  6  1  0  0  0
  6 18  1  0  0  0
 18 19  2  0  0  0
 19 20  1  0  0  0
 20 21  2  0  0  0
 21 22  1  0  0  0
 22 23  2  0  0  0
 23 24  1  0  0  0
 24 25  2  0  0  0
 25 26  1  0  0  0
 26 27  2  0  0  0
  6  7  1  0  0  0
  7  8  1  0  0  0
  8 34  1  0  0  0
 34 35  1  0  0  0
 35 37  1  0  0  0
 37 38  2  0  0  0
 38 39  1  0  0  0
 39 40  2  0  0  0
 40 41  1  0  0  0
 41 42  2  0  0  0
  3  9  1  0  0  0
  9 10  2  0  0  0
 10 11  1  0  0  0
 11 12  1  0  0  0
 11 13  2  0  0  0
 13 14  1  0  0  0
 14 15  2  0  0  0
 15 16  1  0  0  0
 16 17  2  0  0  0
 16  1  1  0  0  0
  8  3  1  0  0  0
 42 37  1  0  0  0
 15  9  1  0  0  0
 27 18  1  0  0  0
 27 22  1  0  0  0
 30 33  1  0  0  0
 35 36  1  0  0  0
M  END
> <minimizedAffinity>
-7.71488

> <CNNscore>
0.4723553956

> <CNNaffinity>
6.9432344437

> <CNN_VS>
3.2796742916

> <CNNaffinity_variance>
0.0373628400

$$$$



 42 47  0  0  0  0  0  0  0  0999 V2000
   -5.4608   -6.1285  -23.5743 N   0  0  0  0  0  0  0  0  0  0  0  0
   -6.0421   -4.8634  -23.0162 C   0  0  0  0  0  0  0  0  0  0  0  0
   -7.0930   -4.1181  -23.7844 C   0  0  0  0  0  0  0  0  0  0  0  0
   -8.1448   -3.2692  -24.4347 C   0  0  0  0  0  0  0  0  0  0  0  0
   -8.8213   -3.2355  -25.4435 O   0  0  0  0  0  0  0  0  0  0  0  0
   -8.4265   -2.1062  -23.5302 N   0  0  0  0  0  0  0  0  0  0  0  0
   -7.5487   -2.2363  -22.3209 C   0  0  0  0  0  0  0  0  0  0  0  0
   -6.7245   -3.4797  -22.4780 C   0  0  0  0  0  0  0  0  0  0  0  0
   -7.5625   -4.6380  -25.1109 C   0  0  0  0  0  0  0  0  0  0  0  0
   -8.6134   -3.8927  -25.8791 C   0  0  0  0  0  0  0  0  0  0  0  0
   -9.0829   -4.4126  -27.2055 C   0  0  0  0  0  0  0  0  0  0  0  0
  -10.1338   -3.6673  -27.9738 Cl  0  0  0  0  0  0  0  0  0  0  0  0
   -8.5015   -5.6777  -27.7636 C   0  0  0  0  0  0  0  0  0  0  0  0
   -7.4507   -6.4229  -26.9953 C   0  0  0  0  0  0  0  0  0  0  0  0
   -6.9812   -5.9031  -25.6690 C   0  0  0  0  0  0  0  0  0  0  0  0
   -5.9303   -6.6483  -24.9006 C   0  0  0  0  0  0  0  0  0  0  0  0
   -5.3489   -7.9135  -25.4587 O   0  0  0  0  0  0  0  0  0  0  0  0
   -9.4128   -1.0062  -23.7896 C   0  0  0  0  0  0  0  0  0  0  0  0
   -8.9576    0.2757  -24.4218 C   0  0  0  0  0  0  0  0  0  0  0  0
   -9.9439    1.3756  -24.6812 N   0  0  0  0  0  0  0  0  0  0  0  0
  -11.3853    1.1938  -24.3083 C   0  0  0  0  0  0  0  0  0  0  0  0
  -11.8405   -0.0881  -23.6760 C   0  0  0  0  0  0  0  0  0  0  0  0
  -13.2821   -0.2699  -23.3031 C   0  0  0  0  0  0  0  0  0  0  0  0
  -13.7371   -1.5518  -22.6709 C   0  0  0  0  0  0  0  0  0  0  0  0
  -12.7509   -2.6517  -22.4115 C   0  0  0  0  0  0  0  0  0  0  0  0
  -11.3094   -2.4699  -22.7844 C   0  0  0  0  0  0  0  0  0  0  0  0
  -10.8542   -1.1880  -23.4167 C   0  0  0  0  0  0  0  0  0  0  0  0
   -4.4099   -6.8738  -22.8060 C   0  0  0  0  0  0  0  0  0  0  0  0
   -0.7704   -8.3260  -23.4344 C   0  0  0  0  0  0  0  0  0  0  0  0
   -2.1322   -8.1231  -22.8391 N   0  0  0  0  0  0  0  0  0  0  0  0
   -3.0480   -7.0766  -23.4012 C   0  0  0  0  0  0  0  0  0  0  0  0
   -2.6021   -6.2330  -24.5586 O   0  0  0  0  0  0  0  0  0  0  0  0
   -2.4248   -8.6768  -22.0795 H   0  0  0  0  0  0  0  0  0  0  0  0
   -5.7101   -3.9944  -21.5003 C   0  0  0  0  0  0  0  0  0  0  0  0
   -5.7464   -3.5385  -20.0718 N   0  0  0  0  0  0  0  0  0  0  0  0
   -6.0294   -4.1609  -19.3635 H   0  0  0  0  0  0  0  0  0  0  0  0
   -5.3517   -2.1341  -19.7224 C   0  0  0  0  0  0  0  0  0  0  0  0
   -4.6030   -1.2962  -20.7161 C   0  0  0  0  0  0  0  0  0  0  0  0
   -4.2083    0.1080  -20.3668 N   0  0  0  0  0  0  0  0  0  0  0  0
   -4.5622    0.6745  -19.0237 C   0  0  0  0  0  0  0  0  0  0  0  0
   -5.3109   -0.1633  -18.0300 C   0  0  0  0  0  0  0  0  0  0  0  0
   -5.7056   -1.5677  -18.3794 N   0  0  0  0  0  0  0  0  0  0  0  0
 29 30  1  0  0  0
 30 31  1  0  0  0
 31 32  2  0  0  0
 31 28  1  0  0  0
 28  1  1  0  0  0
  1  2  1  0  0  0
  3  2  1  0  0  0
  3  4  1  0  0  0
  4  5  2  0  0  0
  4  6  1  0  0  0
  6 18  1  0  0  0
 18 19  2  0  0  0
 19 20  1  0  0  0
 20 21  2  0  0  0
 21 22  1  0  0  0
 22 23  2  0  0  0
 23 24  1  0  0  0
 24 25  2  0  0  0
 25 26  1  0  0  0
 26 27  2  0  0  0
  6  7  1  0  0  0
  7  8  1  0  0  0
  8 34  1  0  0  0
 34 35  1  0  0  0
 35 37  1  0  0  0
 37 38  2  0  0  0
 38 39  1  0  0  0
 39 40  2  0  0  0
 40 41  1  0  0  0
 41 42  2  0  0  0
  3  9  1  0  0  0
  9 10  2  0  0  0
 10 11  1  0  0  0
 11 12  1  0  0  0
 11 13  2  0  0  0
 13 14  1  0  0  0
 14 15  2  0  0  0
 15 16  1  0  0  0
 16 17  2  0  0  0
 16  1  1  0  0  0
  8  3  1  0  0  0
 42 37  1  0  0  0
 15  9  1  0  0  0
 27 18  1  0  0  0
 27 22  1  0  0  0
 30 33  1  0  0  0
 35 36  1  0  0  0
M  END
> <minimizedAffinity>
-8.27462

> <CNNscore>
0.4692080617

> <CNNaffinity>
7.1027936935

> <CNN_VS>
3.3326880932

> <CNNaffinity_variance>
0.1290648729

$$$$



 42 47  0  0  0  0  0  0  0  0999 V2000
  -11.5944    3.8702  -23.9815 N   0  0  0  0  0  0  0  0  0  0  0  0
  -10.2186    3.2825  -23.8732 C   0  0  0  0  0  0  0  0  0  0  0  0
  -10.0482    1.8139  -23.6200 C   0  0  0  0  0  0  0  0  0  0  0  0
   -9.7230    0.3710  -23.3704 C   0  0  0  0  0  0  0  0  0  0  0  0
  -10.2835   -0.6919  -23.1908 O   0  0  0  0  0  0  0  0  0  0  0  0
   -8.2298    0.2312  -23.3384 N   0  0  0  0  0  0  0  0  0  0  0  0
   -7.6322    1.5877  -23.5682 C   0  0  0  0  0  0  0  0  0  0  0  0
   -8.7561    2.5658  -23.7422 C   0  0  0  0  0  0  0  0  0  0  0  0
  -11.2537    0.9330  -23.4751 C   0  0  0  0  0  0  0  0  0  0  0  0
  -11.0833   -0.5356  -23.2219 C   0  0  0  0  0  0  0  0  0  0  0  0
  -12.2887   -1.4165  -23.0771 C   0  0  0  0  0  0  0  0  0  0  0  0
  -12.1183   -2.8852  -22.8239 Cl  0  0  0  0  0  0  0  0  0  0  0  0
  -13.6645   -0.8287  -23.1854 C   0  0  0  0  0  0  0  0  0  0  0  0
  -13.8349    0.6399  -23.4386 C   0  0  0  0  0  0  0  0  0  0  0  0
  -12.6295    1.5207  -23.5834 C   0  0  0  0  0  0  0  0  0  0  0  0
  -12.7998    2.9894  -23.8366 C   0  0  0  0  0  0  0  0  0  0  0  0
  -14.1756    3.5771  -23.9450 O   0  0  0  0  0  0  0  0  0  0  0  0
   -7.4681   -1.0416  -23.1157 C   0  0  0  0  0  0  0  0  0  0  0  0
   -7.2843   -2.0130  -24.2438 C   0  0  0  0  0  0  0  0  0  0  0  0
   -6.5226   -3.2858  -24.0211 N   0  0  0  0  0  0  0  0  0  0  0  0
   -5.9446   -3.5873  -22.6702 C   0  0  0  0  0  0  0  0  0  0  0  0
   -6.1283   -2.6160  -21.5420 C   0  0  0  0  0  0  0  0  0  0  0  0
   -5.5503   -2.9175  -20.1910 C   0  0  0  0  0  0  0  0  0  0  0  0
   -5.7341   -1.9461  -19.0629 C   0  0  0  0  0  0  0  0  0  0  0  0
   -6.4958   -0.6733  -19.2857 C   0  0  0  0  0  0  0  0  0  0  0  0
   -7.0738   -0.3718  -20.6366 C   0  0  0  0  0  0  0  0  0  0  0  0
   -6.8901   -1.3431  -21.7647 C   0  0  0  0  0  0  0  0  0  0  0  0
  -11.7647    5.3389  -24.2347 C   0  0  0  0  0  0  0  0  0  0  0  0
  -14.0182    6.3513  -27.3406 C   0  0  0  0  0  0  0  0  0  0  0  0
  -13.6163    5.8667  -25.9792 N   0  0  0  0  0  0  0  0  0  0  0  0
  -12.1667    5.8236  -25.5961 C   0  0  0  0  0  0  0  0  0  0  0  0
  -11.1189    6.2652  -26.5746 O   0  0  0  0  0  0  0  0  0  0  0  0
  -14.3039    5.5769  -25.3370 H   0  0  0  0  0  0  0  0  0  0  0  0
   -8.6128    4.0376  -23.9943 C   0  0  0  0  0  0  0  0  0  0  0  0
   -8.0252    4.9257  -22.9380 N   0  0  0  0  0  0  0  0  0  0  0  0
   -8.6000    5.2932  -22.2283 H   0  0  0  0  0  0  0  0  0  0  0  0
   -6.5618    5.2540  -22.9631 C   0  0  0  0  0  0  0  0  0  0  0  0
   -5.6229    4.4321  -23.7955 C   0  0  0  0  0  0  0  0  0  0  0  0
   -4.1596    4.7604  -23.8206 N   0  0  0  0  0  0  0  0  0  0  0  0
   -3.6349    5.9107  -23.0133 C   0  0  0  0  0  0  0  0  0  0  0  0
   -4.5738    6.7326  -22.1808 C   0  0  0  0  0  0  0  0  0  0  0  0
   -6.0373    6.4043  -22.1558 N   0  0  0  0  0  0  0  0  0  0  0  0
 29 30  1  0  0  0
 30 31  1  0  0  0
 31 32  2  0  0  0
 31 28  1  0  0  0
 28  1  1  0  0  0
  1  2  1  0  0  0
  3  2  1  0  0  0
  3  4  1  0  0  0
  4  5  2  0  0  0
  4  6  1  0  0  0
  6 18  1  0  0  0
 18 19  2  0  0  0
 19 20  1  0  0  0
 20 21  2  0  0  0
 21 22  1  0  0  0
 22 23  2  0  0  0
 23 24  1  0  0  0
 24 25  2  0  0  0
 25 26  1  0  0  0
 26 27  2  0  0  0
  6  7  1  0  0  0
  7  8  1  0  0  0
  8 34  1  0  0  0
 34 35  1  0  0  0
 35 37  1  0  0  0
 37 38  2  0  0  0
 38 39  1  0  0  0
 39 40  2  0  0  0
 40 41  1  0  0  0
 41 42  2  0  0  0
  3  9  1  0  0  0
  9 10  2  0  0  0
 10 11  1  0  0  0
 11 12  1  0  0  0
 11 13  2  0  0  0
 13 14  1  0  0  0
 14 15  2  0  0  0
 15 16  1  0  0  0
 16 17  2  0  0  0
 16  1  1  0  0  0
  8  3  1  0  0  0
 42 37  1  0  0  0
 15  9  1  0  0  0
 27 18  1  0  0  0
 27 22  1  0  0  0
 30 33  1  0  0  0
 35 36  1  0  0  0
M  END
> <minimizedAffinity>
-7.94969

> <CNNscore>
0.2534131706

> <CNNaffinity>
6.8148179054

> <CNN_VS>
1.7269645929

> <CNNaffinity_variance>
0.1302655637

$$$$



 42 47  0  0  0  0  0  0  0  0999 V2000
   -8.7710    2.6197  -23.9560 N   0  0  0  0  0  0  0  0  0  0  0  0
   -7.8921    1.4081  -24.0536 C   0  0  0  0  0  0  0  0  0  0  0  0
   -8.4829    0.0383  -23.8963 C   0  0  0  0  0  0  0  0  0  0  0  0
   -8.9287   -1.3875  -23.7611 C   0  0  0  0  0  0  0  0  0  0  0  0
   -9.9397   -2.0318  -23.5633 O   0  0  0  0  0  0  0  0  0  0  0  0
   -7.7253   -2.2672  -23.9275 N   0  0  0  0  0  0  0  0  0  0  0  0
   -6.5356   -1.3852  -24.1654 C   0  0  0  0  0  0  0  0  0  0  0  0
   -7.0039    0.0398  -24.1462 C   0  0  0  0  0  0  0  0  0  0  0  0
   -9.9526   -0.1198  -23.6414 C   0  0  0  0  0  0  0  0  0  0  0  0
  -10.5435   -1.4895  -23.4841 C   0  0  0  0  0  0  0  0  0  0  0  0
  -12.0131   -1.6476  -23.2293 C   0  0  0  0  0  0  0  0  0  0  0  0
  -12.6040   -3.0173  -23.0720 Cl  0  0  0  0  0  0  0  0  0  0  0  0
  -12.8920   -0.4359  -23.1317 C   0  0  0  0  0  0  0  0  0  0  0  0
  -12.3012    0.9338  -23.2890 C   0  0  0  0  0  0  0  0  0  0  0  0
  -10.8315    1.0919  -23.5438 C   0  0  0  0  0  0  0  0  0  0  0  0
  -10.2406    2.4616  -23.7012 C   0  0  0  0  0  0  0  0  0  0  0  0
  -11.1195    3.6733  -23.6036 O   0  0  0  0  0  0  0  0  0  0  0  0
   -7.7135   -3.7660  -23.8665 C   0  0  0  0  0  0  0  0  0  0  0  0
   -7.1455   -4.4634  -22.6661 C   0  0  0  0  0  0  0  0  0  0  0  0
   -7.1337   -5.9621  -22.6052 N   0  0  0  0  0  0  0  0  0  0  0  0
   -7.6901   -6.7634  -23.7446 C   0  0  0  0  0  0  0  0  0  0  0  0
   -8.2581   -6.0659  -24.9450 C   0  0  0  0  0  0  0  0  0  0  0  0
   -8.8145   -6.8673  -26.0846 C   0  0  0  0  0  0  0  0  0  0  0  0
   -9.3825   -6.1698  -27.2849 C   0  0  0  0  0  0  0  0  0  0  0  0
   -9.3943   -4.6711  -27.3458 C   0  0  0  0  0  0  0  0  0  0  0  0
   -8.8379   -3.8698  -26.2064 C   0  0  0  0  0  0  0  0  0  0  0  0
   -8.2699   -4.5672  -25.0060 C   0  0  0  0  0  0  0  0  0  0  0  0
   -8.1801    3.9895  -24.1133 C   0  0  0  0  0  0  0  0  0  0  0  0
   -9.8625    6.2916  -26.8737 C   0  0  0  0  0  0  0  0  0  0  0  0
   -9.6551    5.5271  -25.5999 N   0  0  0  0  0  0  0  0  0  0  0  0
   -8.3875    4.7540  -25.3871 C   0  0  0  0  0  0  0  0  0  0  0  0
   -7.3271    4.7453  -26.4481 O   0  0  0  0  0  0  0  0  0  0  0  0
  -10.3510    5.5328  -24.9035 H   0  0  0  0  0  0  0  0  0  0  0  0
   -6.1440    1.2531  -24.3423 C   0  0  0  0  0  0  0  0  0  0  0  0
   -4.6720    1.1824  -24.0627 N   0  0  0  0  0  0  0  0  0  0  0  0
   -4.0368    1.0422  -24.8017 H   0  0  0  0  0  0  0  0  0  0  0  0
   -4.1678    1.3253  -22.6572 C   0  0  0  0  0  0  0  0  0  0  0  0
   -4.3742    0.2152  -21.6698 C   0  0  0  0  0  0  0  0  0  0  0  0
   -3.8700    0.3581  -20.2645 N   0  0  0  0  0  0  0  0  0  0  0  0
   -3.1594    1.6112  -19.8463 C   0  0  0  0  0  0  0  0  0  0  0  0
   -2.9531    2.7214  -20.8337 C   0  0  0  0  0  0  0  0  0  0  0  0
   -3.4573    2.5784  -22.2391 N   0  0  0  0  0  0  0  0  0  0  0  0
 29 30  1  0  0  0
 30 31  1  0  0  0
 31 32  2  0  0  0
 31 28  1  0  0  0
 28  1  1  0  0  0
  1  2  1  0  0  0
  3  2  1  0  0  0
  3  4  1  0  0  0
  4  5  2  0  0  0
  4  6  1  0  0  0
  6 18  1  0  0  0
 18 19  2  0  0  0
 19 20  1  0  0  0
 20 21  2  0  0  0
 21 22  1  0  0  0
 22 23  2  0  0  0
 23 24  1  0  0  0
 24 25  2  0  0  0
 25 26  1  0  0  0
 26 27  2  0  0  0
  6  7  1  0  0  0
  7  8  1  0  0  0
  8 34  1  0  0  0
 34 35  1  0  0  0
 35 37  1  0  0  0
 37 38  2  0  0  0
 38 39  1  0  0  0
 39 40  2  0  0  0
 40 41  1  0  0  0
 41 42  2  0  0  0
  3  9  1  0  0  0
  9 10  2  0  0  0
 10 11  1  0  0  0
 11 12  1  0  0  0
 11 13  2  0  0  0
 13 14  1  0  0  0
 14 15  2  0  0  0
 15 16  1  0  0  0
 16 17  2  0  0  0
 16  1  1  0  0  0
  8  3  1  0  0  0
 42 37  1  0  0  0
 15  9  1  0  0  0
 27 18  1  0  0  0
 27 22  1  0  0  0
 30 33  1  0  0  0
 35 36  1  0  0  0
M  END
> <minimizedAffinity>
-7.39759

> <CNNscore>
0.2374298573

> <CNNaffinity>
6.8160123825

> <CNN_VS>
1.6183248758

> <CNNaffinity_variance>
0.1408742368

$$$$



 42 47  0  0  0  0  0  0  0  0999 V2000
   -8.4608    2.4798  -24.2034 N   0  0  0  0  0  0  0  0  0  0  0  0
   -7.6504    1.2230  -24.3204 C   0  0  0  0  0  0  0  0  0  0  0  0
   -8.3033   -0.1120  -24.1171 C   0  0  0  0  0  0  0  0  0  0  0  0
   -8.8154   -1.5109  -23.9413 C   0  0  0  0  0  0  0  0  0  0  0  0
   -9.8485   -2.0993  -23.6903 O   0  0  0  0  0  0  0  0  0  0  0  0
   -7.6671   -2.4541  -24.1460 N   0  0  0  0  0  0  0  0  0  0  0  0
   -6.4453   -1.6381  -24.4483 C   0  0  0  0  0  0  0  0  0  0  0  0
   -6.8385   -0.1907  -24.4305 C   0  0  0  0  0  0  0  0  0  0  0  0
   -9.7667   -0.1903  -23.7967 C   0  0  0  0  0  0  0  0  0  0  0  0
  -10.4195   -1.5253  -23.5934 C   0  0  0  0  0  0  0  0  0  0  0  0
  -11.8828   -1.6035  -23.2730 C   0  0  0  0  0  0  0  0  0  0  0  0
  -12.5358   -2.9386  -23.0697 Cl  0  0  0  0  0  0  0  0  0  0  0  0
  -12.6932   -0.3467  -23.1560 C   0  0  0  0  0  0  0  0  0  0  0  0
  -12.0403    0.9883  -23.3594 C   0  0  0  0  0  0  0  0  0  0  0  0
  -10.5771    1.0665  -23.6797 C   0  0  0  0  0  0  0  0  0  0  0  0
   -9.9241    2.4016  -23.8831 C   0  0  0  0  0  0  0  0  0  0  0  0
  -10.7345    3.6584  -23.7661 O   0  0  0  0  0  0  0  0  0  0  0  0
   -7.7297   -3.9504  -24.0629 C   0  0  0  0  0  0  0  0  0  0  0  0
   -7.2174   -4.6559  -22.8423 C   0  0  0  0  0  0  0  0  0  0  0  0
   -7.2800   -6.1523  -22.7592 N   0  0  0  0  0  0  0  0  0  0  0  0
   -7.8548   -6.9432  -23.8967 C   0  0  0  0  0  0  0  0  0  0  0  0
   -8.3671   -6.2377  -25.1174 C   0  0  0  0  0  0  0  0  0  0  0  0
   -8.9420   -7.0287  -26.2550 C   0  0  0  0  0  0  0  0  0  0  0  0
   -9.4542   -6.3231  -27.4755 C   0  0  0  0  0  0  0  0  0  0  0  0
   -9.3916   -4.8267  -27.5586 C   0  0  0  0  0  0  0  0  0  0  0  0
   -8.8168   -4.0358  -26.4210 C   0  0  0  0  0  0  0  0  0  0  0  0
   -8.3045   -4.7413  -25.2004 C   0  0  0  0  0  0  0  0  0  0  0  0
   -7.8079    3.8149  -24.4068 C   0  0  0  0  0  0  0  0  0  0  0  0
   -6.4106    6.7308  -22.1057 C   0  0  0  0  0  0  0  0  0  0  0  0
   -7.0409    6.0197  -23.2663 N   0  0  0  0  0  0  0  0  0  0  0  0
   -7.1776    4.5261  -23.2462 C   0  0  0  0  0  0  0  0  0  0  0  0
   -6.6839    3.7435  -22.0655 O   0  0  0  0  0  0  0  0  0  0  0  0
   -7.3650    6.5332  -24.0412 H   0  0  0  0  0  0  0  0  0  0  0  0
   -5.9269    0.9737  -24.6819 C   0  0  0  0  0  0  0  0  0  0  0  0
   -4.4955    0.9152  -24.2376 N   0  0  0  0  0  0  0  0  0  0  0  0
   -3.7802    0.7744  -24.8992 H   0  0  0  0  0  0  0  0  0  0  0  0
   -4.1539    1.0712  -22.7854 C   0  0  0  0  0  0  0  0  0  0  0  0
   -4.4077   -0.0568  -21.8298 C   0  0  0  0  0  0  0  0  0  0  0  0
   -4.0661    0.0992  -20.3777 N   0  0  0  0  0  0  0  0  0  0  0  0
   -3.4706    1.3833  -19.8810 C   0  0  0  0  0  0  0  0  0  0  0  0
   -3.2167    2.5113  -20.8365 C   0  0  0  0  0  0  0  0  0  0  0  0
   -3.5584    2.3553  -22.2888 N   0  0  0  0  0  0  0  0  0  0  0  0
 29 30  1  0  0  0
 30 31  1  0  0  0
 31 32  2  0  0  0
 31 28  1  0  0  0
 28  1  1  0  0  0
  1  2  1  0  0  0
  3  2  1  0  0  0
  3  4  1  0  0  0
  4  5  2  0  0  0
  4  6  1  0  0  0
  6 18  1  0  0  0
 18 19  2  0  0  0
 19 20  1  0  0  0
 20 21  2  0  0  0
 21 22  1  0  0  0
 22 23  2  0  0  0
 23 24  1  0  0  0
 24 25  2  0  0  0
 25 26  1  0  0  0
 26 27  2  0  0  0
  6  7  1  0  0  0
  7  8  1  0  0  0
  8 34  1  0  0  0
 34 35  1  0  0  0
 35 37  1  0  0  0
 37 38  2  0  0  0
 38 39  1  0  0  0
 39 40  2  0  0  0
 40 41  1  0  0  0
 41 42  2  0  0  0
  3  9  1  0  0  0
  9 10  2  0  0  0
 10 11  1  0  0  0
 11 12  1  0  0  0
 11 13  2  0  0  0
 13 14  1  0  0  0
 14 15  2  0  0  0
 15 16  1  0  0  0
 16 17  2  0  0  0
 16  1  1  0  0  0
  8  3  1  0  0  0
 42 37  1  0  0  0
 15  9  1  0  0  0
 27 18  1  0  0  0
 27 22  1  0  0  0
 30 33  1  0  0  0
 35 36  1  0  0  0
M  END
> <minimizedAffinity>
-7.75263

> <CNNscore>
0.2314471304

> <CNNaffinity>
6.6871695518

> <CNN_VS>
1.5477261543

> <CNNaffinity_variance>
0.1708753109

$$$$



 42 47  0  0  0  0  0  0  0  0999 V2000
   -7.0552   -3.4533  -22.4432 N   0  0  0  0  0  0  0  0  0  0  0  0
   -7.8193   -2.5063  -23.3203 C   0  0  0  0  0  0  0  0  0  0  0  0
   -7.5013   -1.0406  -23.2975 C   0  0  0  0  0  0  0  0  0  0  0  0
   -7.2964    0.4429  -23.3821 C   0  0  0  0  0  0  0  0  0  0  0  0
   -6.6000    1.3152  -22.9021 O   0  0  0  0  0  0  0  0  0  0  0  0
   -8.2729    0.9895  -24.3809 N   0  0  0  0  0  0  0  0  0  0  0  0
   -9.0814   -0.1562  -24.9136 C   0  0  0  0  0  0  0  0  0  0  0  0
   -8.6045   -1.4109  -24.2440 C   0  0  0  0  0  0  0  0  0  0  0  0
   -6.4191   -0.5219  -22.3976 C   0  0  0  0  0  0  0  0  0  0  0  0
   -6.1010    0.9438  -22.3748 C   0  0  0  0  0  0  0  0  0  0  0  0
   -5.0189    1.4624  -21.4749 C   0  0  0  0  0  0  0  0  0  0  0  0
   -4.7008    2.9282  -21.4520 Cl  0  0  0  0  0  0  0  0  0  0  0  0
   -4.2547    0.5154  -20.5978 C   0  0  0  0  0  0  0  0  0  0  0  0
   -4.5728   -0.9503  -20.6206 C   0  0  0  0  0  0  0  0  0  0  0  0
   -5.6550   -1.4689  -21.5205 C   0  0  0  0  0  0  0  0  0  0  0  0
   -5.9731   -2.9347  -21.5433 C   0  0  0  0  0  0  0  0  0  0  0  0
   -5.2090   -3.8817  -20.6662 O   0  0  0  0  0  0  0  0  0  0  0  0
   -8.4159    2.4291  -24.7773 C   0  0  0  0  0  0  0  0  0  0  0  0
   -7.3127    3.1132  -25.5289 C   0  0  0  0  0  0  0  0  0  0  0  0
   -7.4556    4.5528  -25.9253 N   0  0  0  0  0  0  0  0  0  0  0  0
   -8.7018    5.3083  -25.5701 C   0  0  0  0  0  0  0  0  0  0  0  0
   -9.8051    4.6242  -24.8185 C   0  0  0  0  0  0  0  0  0  0  0  0
  -11.0514    5.3797  -24.4633 C   0  0  0  0  0  0  0  0  0  0  0  0
  -12.1546    4.6955  -23.7117 C   0  0  0  0  0  0  0  0  0  0  0  0
  -12.0116    3.2560  -23.3153 C   0  0  0  0  0  0  0  0  0  0  0  0
  -10.7654    2.5005  -23.6705 C   0  0  0  0  0  0  0  0  0  0  0  0
   -9.6621    3.1846  -24.4221 C   0  0  0  0  0  0  0  0  0  0  0  0
   -7.3733   -4.9191  -22.4661 C   0  0  0  0  0  0  0  0  0  0  0  0
   -3.9872   -6.8086  -23.3108 C   0  0  0  0  0  0  0  0  0  0  0  0
   -5.0963   -5.7997  -23.3547 N   0  0  0  0  0  0  0  0  0  0  0  0
   -6.2642   -5.9280  -22.4222 C   0  0  0  0  0  0  0  0  0  0  0  0
   -6.3230   -7.0653  -21.4458 O   0  0  0  0  0  0  0  0  0  0  0  0
   -5.0577   -5.0533  -23.9955 H   0  0  0  0  0  0  0  0  0  0  0  0
   -9.1372   -2.7931  -24.4797 C   0  0  0  0  0  0  0  0  0  0  0  0
  -10.2133   -3.3437  -23.5916 N   0  0  0  0  0  0  0  0  0  0  0  0
  -10.0950   -4.2209  -23.1608 H   0  0  0  0  0  0  0  0  0  0  0  0
  -11.4698   -2.5577  -23.3600 C   0  0  0  0  0  0  0  0  0  0  0  0
  -11.6801   -1.2533  -24.0700 C   0  0  0  0  0  0  0  0  0  0  0  0
  -12.9364   -0.4673  -23.8384 N   0  0  0  0  0  0  0  0  0  0  0  0
  -13.9826   -0.9858  -22.8967 C   0  0  0  0  0  0  0  0  0  0  0  0
  -13.7723   -2.2903  -22.1867 C   0  0  0  0  0  0  0  0  0  0  0  0
  -12.5159   -3.0762  -22.4183 N   0  0  0  0  0  0  0  0  0  0  0  0
 29 30  1  0  0  0
 30 31  1  0  0  0
 31 32  2  0  0  0
 31 28  1  0  0  0
 28  1  1  0  0  0
  1  2  1  0  0  0
  3  2  1  0  0  0
  3  4  1  0  0  0
  4  5  2  0  0  0
  4  6  1  0  0  0
  6 18  1  0  0  0
 18 19  2  0  0  0
 19 20  1  0  0  0
 20 21  2  0  0  0
 21 22  1  0  0  0
 22 23  2  0  0  0
 23 24  1  0  0  0
 24 25  2  0  0  0
 25 26  1  0  0  0
 26 27  2  0  0  0
  6  7  1  0  0  0
  7  8  1  0  0  0
  8 34  1  0  0  0
 34 35  1  0  0  0
 35 37  1  0  0  0
 37 38  2  0  0  0
 38 39  1  0  0  0
 39 40  2  0  0  0
 40 41  1  0  0  0
 41 42  2  0  0  0
  3  9  1  0  0  0
  9 10  2  0  0  0
 10 11  1  0  0  0
 11 12  1  0  0  0
 11 13  2  0  0  0
 13 14  1  0  0  0
 14 15  2  0  0  0
 15 16  1  0  0  0
 16 17  2  0  0  0
 16  1  1  0  0  0
  8  3  1  0  0  0
 42 37  1  0  0  0
 15  9  1  0  0  0
 27 18  1  0  0  0
 27 22  1  0  0  0
 30 33  1  0  0  0
 35 36  1  0  0  0
M  END
> <minimizedAffinity>
-7.84903

> <CNNscore>
0.1989027560

> <CNNaffinity>
6.7610635757

> <CNN_VS>
1.3447941542

> <CNNaffinity_variance>
0.0966998041

$$$$



 42 47  0  0  0  0  0  0  0  0999 V2000
   -6.5063   -0.3957  -22.4206 N   0  0  0  0  0  0  0  0  0  0  0  0
   -6.7702    0.8880  -23.1504 C   0  0  0  0  0  0  0  0  0  0  0  0
   -8.1491    1.1938  -23.6553 C   0  0  0  0  0  0  0  0  0  0  0  0
   -9.4692    1.6344  -24.2151 C   0  0  0  0  0  0  0  0  0  0  0  0
  -10.6178    1.2484  -24.3046 O   0  0  0  0  0  0  0  0  0  0  0  0
   -9.2753    2.9752  -24.8592 N   0  0  0  0  0  0  0  0  0  0  0  0
   -7.8354    3.3632  -24.6975 C   0  0  0  0  0  0  0  0  0  0  0  0
   -7.1394    2.2622  -23.9534 C   0  0  0  0  0  0  0  0  0  0  0  0
   -9.2642    0.2159  -23.4305 C   0  0  0  0  0  0  0  0  0  0  0  0
  -10.6431    0.5217  -23.9354 C   0  0  0  0  0  0  0  0  0  0  0  0
  -11.7581   -0.4561  -23.7106 C   0  0  0  0  0  0  0  0  0  0  0  0
  -13.1371   -0.1503  -24.2155 Cl  0  0  0  0  0  0  0  0  0  0  0  0
  -11.4942   -1.7398  -22.9809 C   0  0  0  0  0  0  0  0  0  0  0  0
  -10.1152   -2.0456  -22.4759 C   0  0  0  0  0  0  0  0  0  0  0  0
   -9.0003   -1.0678  -22.7008 C   0  0  0  0  0  0  0  0  0  0  0  0
   -7.6213   -1.3736  -22.1958 C   0  0  0  0  0  0  0  0  0  0  0  0
   -7.3573   -2.6572  -21.4661 O   0  0  0  0  0  0  0  0  0  0  0  0
  -10.3352    3.7856  -25.5446 C   0  0  0  0  0  0  0  0  0  0  0  0
  -10.2767    3.9949  -27.0288 C   0  0  0  0  0  0  0  0  0  0  0  0
  -11.3366    4.8053  -27.7142 N   0  0  0  0  0  0  0  0  0  0  0  0
  -12.4550    5.4064  -26.9155 C   0  0  0  0  0  0  0  0  0  0  0  0
  -12.5134    5.1970  -25.4313 C   0  0  0  0  0  0  0  0  0  0  0  0
  -13.6318    5.7981  -24.6325 C   0  0  0  0  0  0  0  0  0  0  0  0
  -13.6902    5.5887  -23.1483 C   0  0  0  0  0  0  0  0  0  0  0  0
  -12.6303    4.7783  -22.4629 C   0  0  0  0  0  0  0  0  0  0  0  0
  -11.5119    4.1773  -23.2617 C   0  0  0  0  0  0  0  0  0  0  0  0
  -11.4535    4.3866  -24.7459 C   0  0  0  0  0  0  0  0  0  0  0  0
   -5.1273   -0.7015  -21.9157 C   0  0  0  0  0  0  0  0  0  0  0  0
   -5.1011    0.1117  -18.0314 C   0  0  0  0  0  0  0  0  0  0  0  0
   -5.5424   -0.4066  -19.3680 N   0  0  0  0  0  0  0  0  0  0  0  0
   -4.6860   -0.1832  -20.5791 C   0  0  0  0  0  0  0  0  0  0  0  0
   -3.3881    0.5585  -20.4535 O   0  0  0  0  0  0  0  0  0  0  0  0
   -6.3941   -0.8933  -19.4505 H   0  0  0  0  0  0  0  0  0  0  0  0
   -5.6884    2.2346  -23.5741 C   0  0  0  0  0  0  0  0  0  0  0  0
   -4.6493    2.7037  -24.5488 N   0  0  0  0  0  0  0  0  0  0  0  0
   -4.7973    3.5270  -25.0678 H   0  0  0  0  0  0  0  0  0  0  0  0
   -3.3847    1.9183  -24.7329 C   0  0  0  0  0  0  0  0  0  0  0  0
   -3.4509    0.4600  -25.0779 C   0  0  0  0  0  0  0  0  0  0  0  0
   -2.1863   -0.3253  -25.2619 N   0  0  0  0  0  0  0  0  0  0  0  0
   -0.8554    0.3475  -25.1009 C   0  0  0  0  0  0  0  0  0  0  0  0
   -0.7891    1.8058  -24.7559 C   0  0  0  0  0  0  0  0  0  0  0  0
   -2.0538    2.5912  -24.5719 N   0  0  0  0  0  0  0  0  0  0  0  0
 29 30  1  0  0  0
 30 31  1  0  0  0
 31 32  2  0  0  0
 31 28  1  0  0  0
 28  1  1  0  0  0
  1  2  1  0  0  0
  3  2  1  0  0  0
  3  4  1  0  0  0
  4  5  2  0  0  0
  4  6  1  0  0  0
  6 18  1  0  0  0
 18 19  2  0  0  0
 19 20  1  0  0  0
 20 21  2  0  0  0
 21 22  1  0  0  0
 22 23  2  0  0  0
 23 24  1  0  0  0
 24 25  2  0  0  0
 25 26  1  0  0  0
 26 27  2  0  0  0
  6  7  1  0  0  0
  7  8  1  0  0  0
  8 34  1  0  0  0
 34 35  1  0  0  0
 35 37  1  0  0  0
 37 38  2  0  0  0
 38 39  1  0  0  0
 39 40  2  0  0  0
 40 41  1  0  0  0
 41 42  2  0  0  0
  3  9  1  0  0  0
  9 10  2  0  0  0
 10 11  1  0  0  0
 11 12  1  0  0  0
 11 13  2  0  0  0
 13 14  1  0  0  0
 14 15  2  0  0  0
 15 16  1  0  0  0
 16 17  2  0  0  0
 16  1  1  0  0  0
  8  3  1  0  0  0
 42 37  1  0  0  0
 15  9  1  0  0  0
 27 18  1  0  0  0
 27 22  1  0  0  0
 30 33  1  0  0  0
 35 36  1  0  0  0
M  END
> <minimizedAffinity>
-7.57728

> <CNNscore>
0.1788437217

> <CNNaffinity>
6.3383817673

> <CNN_VS>
1.1335797310

> <CNNaffinity_variance>
0.1393131614

$$$$



 42 47  0  0  0  0  0  0  0  0999 V2000
   -3.4620    1.4639  -23.9861 N   0  0  0  0  0  0  0  0  0  0  0  0
   -4.7306    1.3852  -23.1896 C   0  0  0  0  0  0  0  0  0  0  0  0
   -5.9037    0.6166  -23.7215 C   0  0  0  0  0  0  0  0  0  0  0  0
   -7.1527   -0.1109  -24.1223 C   0  0  0  0  0  0  0  0  0  0  0  0
   -7.5838   -0.7869  -25.0353 O   0  0  0  0  0  0  0  0  0  0  0  0
   -8.1670    0.0744  -23.0329 N   0  0  0  0  0  0  0  0  0  0  0  0
   -7.5448    0.9164  -21.9587 C   0  0  0  0  0  0  0  0  0  0  0  0
   -6.1460    1.2515  -22.3843 C   0  0  0  0  0  0  0  0  0  0  0  0
   -5.8082   -0.0733  -25.0501 C   0  0  0  0  0  0  0  0  0  0  0  0
   -6.9813   -0.8419  -25.5821 C   0  0  0  0  0  0  0  0  0  0  0  0
   -6.8859   -1.5318  -26.9106 C   0  0  0  0  0  0  0  0  0  0  0  0
   -8.0590   -2.3004  -27.4426 Cl  0  0  0  0  0  0  0  0  0  0  0  0
   -5.6173   -1.4531  -27.7071 C   0  0  0  0  0  0  0  0  0  0  0  0
   -4.4441   -0.6845  -27.1751 C   0  0  0  0  0  0  0  0  0  0  0  0
   -4.5396    0.0054  -25.8466 C   0  0  0  0  0  0  0  0  0  0  0  0
   -3.3665    0.7740  -25.3146 C   0  0  0  0  0  0  0  0  0  0  0  0
   -2.0979    0.8528  -26.1111 O   0  0  0  0  0  0  0  0  0  0  0  0
   -9.5590   -0.4843  -23.0199 C   0  0  0  0  0  0  0  0  0  0  0  0
   -9.7796   -1.9420  -22.7436 C   0  0  0  0  0  0  0  0  0  0  0  0
  -11.1716   -2.5007  -22.7306 N   0  0  0  0  0  0  0  0  0  0  0  0
  -12.3430   -1.6016  -22.9939 C   0  0  0  0  0  0  0  0  0  0  0  0
  -12.1224   -0.1438  -23.2702 C   0  0  0  0  0  0  0  0  0  0  0  0
  -13.2940    0.7553  -23.5335 C   0  0  0  0  0  0  0  0  0  0  0  0
  -13.0733    2.2130  -23.8097 C   0  0  0  0  0  0  0  0  0  0  0  0
  -11.6812    2.7717  -23.8227 C   0  0  0  0  0  0  0  0  0  0  0  0
  -10.5098    1.8726  -23.5595 C   0  0  0  0  0  0  0  0  0  0  0  0
  -10.7304    0.4148  -23.2832 C   0  0  0  0  0  0  0  0  0  0  0  0
   -2.2888    2.2325  -23.4541 C   0  0  0  0  0  0  0  0  0  0  0  0
    1.1459    0.7700  -22.1074 C   0  0  0  0  0  0  0  0  0  0  0  0
    0.1452    1.4483  -22.9954 N   0  0  0  0  0  0  0  0  0  0  0  0
   -1.2881    1.5542  -22.5661 C   0  0  0  0  0  0  0  0  0  0  0  0
   -1.7208    0.9817  -21.2489 O   0  0  0  0  0  0  0  0  0  0  0  0
    0.4292    1.8241  -23.8599 H   0  0  0  0  0  0  0  0  0  0  0  0
   -5.1623    2.0767  -21.6089 C   0  0  0  0  0  0  0  0  0  0  0  0
   -4.4483    1.4823  -20.4312 N   0  0  0  0  0  0  0  0  0  0  0  0
   -3.6927    1.9614  -20.0206 H   0  0  0  0  0  0  0  0  0  0  0  0
   -4.8857    0.1579  -19.8792 C   0  0  0  0  0  0  0  0  0  0  0  0
   -5.3179    0.0482  -18.4470 C   0  0  0  0  0  0  0  0  0  0  0  0
   -5.7553   -1.2761  -17.8950 N   0  0  0  0  0  0  0  0  0  0  0  0
   -5.7604   -2.4908  -18.7751 C   0  0  0  0  0  0  0  0  0  0  0  0
   -5.3282   -2.3811  -20.2072 C   0  0  0  0  0  0  0  0  0  0  0  0
   -4.8908   -1.0567  -20.7593 N   0  0  0  0  0  0  0  0  0  0  0  0
 29 30  1  0  0  0
 30 31  1  0  0  0
 31 32  2  0  0  0
 31 28  1  0  0  0
 28  1  1  0  0  0
  1  2  1  0  0  0
  3  2  1  0  0  0
  3  4  1  0  0  0
  4  5  2  0  0  0
  4  6  1  0  0  0
  6 18  1  0  0  0
 18 19  2  0  0  0
 19 20  1  0  0  0
 20 21  2  0  0  0
 21 22  1  0  0  0
 22 23  2  0  0  0
 23 24  1  0  0  0
 24 25  2  0  0  0
 25 26  1  0  0  0
 26 27  2  0  0  0
  6  7  1  0  0  0
  7  8  1  0  0  0
  8 34  1  0  0  0
 34 35  1  0  0  0
 35 37  1  0  0  0
 37 38  2  0  0  0
 38 39  1  0  0  0
 39 40  2  0  0  0
 40 41  1  0  0  0
 41 42  2  0  0  0
  3  9  1  0  0  0
  9 10  2  0  0  0
 10 11  1  0  0  0
 11 12  1  0  0  0
 11 13  2  0  0  0
 13 14  1  0  0  0
 14 15  2  0  0  0
 15 16  1  0  0  0
 16 17  2  0  0  0
 16  1  1  0  0  0
  8  3  1  0  0  0
 42 37  1  0  0  0
 15  9  1  0  0  0
 27 18  1  0  0  0
 27 22  1  0  0  0
 30 33  1  0  0  0
 35 36  1  0  0  0
M  END
> <minimizedAffinity>
-7.54860

> <CNNscore>
0.1402543783

> <CNNaffinity>
6.1427087784

> <CNN_VS>
0.8615418077

> <CNNaffinity_variance>
0.4097244740

$$$$
