


 37 41  0  0  0  0  0  0  0  0999 V2000
    9.6245    0.2701   23.6390 N   0  0  0  0  0  0  0  0  0  0  0  0
    8.2847    0.1327   24.2994 C   0  0  0  0  0  0  0  0  0  0  0  0
    7.4978    1.3575   24.6614 O   0  0  0  0  0  0  0  0  0  0  0  0
    7.4520    5.2130   23.3251 C   0  0  0  0  0  0  0  0  0  0  0  0
    6.8991    3.8510   23.6236 O   0  0  0  0  0  0  0  0  0  0  0  0
    8.9134    5.3814   23.0317 N   0  0  0  0  0  0  0  0  0  0  0  0
    9.4663    6.7435   22.7332 C   0  0  0  0  0  0  0  0  0  0  0  0
   10.9276    6.9119   22.4398 C   0  0  0  0  0  0  0  0  0  0  0  0
   11.8361    5.7183   22.4449 C   0  0  0  0  0  0  0  0  0  0  0  0
   11.2831    4.3563   22.7434 C   0  0  0  0  0  0  0  0  0  0  0  0
   12.1916    3.1626   22.7485 C   0  0  0  0  0  0  0  0  0  0  0  0
   11.6387    1.8006   23.0471 C   0  0  0  0  0  0  0  0  0  0  0  0
   10.1773    1.6322   23.3405 C   0  0  0  0  0  0  0  0  0  0  0  0
    9.2689    2.8258   23.3353 C   0  0  0  0  0  0  0  0  0  0  0  0
    9.8218    4.1879   23.0368 C   0  0  0  0  0  0  0  0  0  0  0  0
    5.7528    6.7420   22.0902 C   0  0  0  0  0  0  0  0  0  0  0  0
    6.5436    6.4066   23.3200 C   0  0  0  0  0  0  0  0  0  0  0  0
   10.4113   -0.9546   23.2771 N   0  0  0  0  0  0  0  0  0  0  0  0
   10.3347   -1.5113   21.8864 C   0  0  0  0  0  0  0  0  0  0  0  0
   11.2747   -1.6225   24.3058 C   0  0  0  0  0  0  0  0  0  0  0  0
   12.6507   -1.0955   24.5867 C   0  0  0  0  0  0  0  0  0  0  0  0
   13.5141   -1.7634   25.6155 C   0  0  0  0  0  0  0  0  0  0  0  0
   13.0016   -2.9583   26.3634 C   0  0  0  0  0  0  0  0  0  0  0  0
   11.6256   -3.4853   26.0825 C   0  0  0  0  0  0  0  0  0  0  0  0
   11.1130   -4.6803   26.8305 Cl  0  0  0  0  0  0  0  0  0  0  0  0
   10.7622   -2.8174   25.0538 C   0  0  0  0  0  0  0  0  0  0  0  0
    7.7318   -1.2293   24.5980 C   0  0  0  0  0  0  0  0  0  0  0  0
    6.9258   -1.9552   23.5619 C   0  0  0  0  0  0  0  0  0  0  0  0
    6.1154   -1.1816   22.5645 C   0  0  0  0  0  0  0  0  0  0  0  0
    5.3095   -1.9076   21.5284 N   0  0  0  0  0  0  0  0  0  0  0  0
    5.3139   -3.4070   21.4897 C   0  0  0  0  0  0  0  0  0  0  0  0
    6.1243   -4.1806   22.4870 C   0  0  0  0  0  0  0  0  0  0  0  0
    6.1288   -5.6801   22.4484 C   0  0  0  0  0  0  0  0  0  0  0  0
    6.9392   -6.4537   23.4457 C   0  0  0  0  0  0  0  0  0  0  0  0
    7.7452   -5.7278   24.4818 C   0  0  0  0  0  0  0  0  0  0  0  0
    7.7407   -4.2283   24.5205 C   0  0  0  0  0  0  0  0  0  0  0  0
    6.9303   -3.4547   23.5231 C   0  0  0  0  0  0  0  0  0  0  0  0
 16 17  1  0  0  0
 17  4  1  0  0  0
  4  5  2  0  0  0
  4  6  1  0  0  0
  6  7  1  0  0  0
  7  8  1  0  0  0
  8  9  1  0  0  0
  9 10  1  0  0  0
 10 11  2  0  0  0
 11 12  1  0  0  0
 12 13  2  0  0  0
 13  1  1  0  0  0
  1  2  1  0  0  0
  2  3  2  0  0  0
  2 27  1  0  0  0
 27 28  1  0  0  0
 28 29  2  0  0  0
 29 30  1  0  0  0
 30 31  2  0  0  0
 31 32  1  0  0  0
 32 33  2  0  0  0
 33 34  1  0  0  0
 34 35  2  0  0  0
 35 36  1  0  0  0
 36 37  2  0  0  0
  1 18  1  0  0  0
 18 19  1  0  0  0
 18 20  1  0  0  0
 20 21  2  0  0  0
 21 22  1  0  0  0
 22 23  2  0  0  0
 23 24  1  0  0  0
 24 25  1  0  0  0
 24 26  2  0  0  0
 13 14  1  0  0  0
 14 15  2  0  0  0
 15  6  1  0  0  0
 15 10  1  0  0  0
 37 28  1  0  0  0
 26 20  1  0  0  0
 37 32  1  0  0  0
M  END
> <minimizedAffinity>
-8.38035

> <CNNscore>
0.7038090229

> <CNNaffinity>
7.3824806213

> <CNN_VS>
5.1958565712

> <CNNaffinity_variance>
0.1719848216

$$$$



 37 41  0  0  0  0  0  0  0  0999 V2000
    7.0795   -3.2869   23.1538 N   0  0  0  0  0  0  0  0  0  0  0  0
    6.7022   -2.0696   22.3627 C   0  0  0  0  0  0  0  0  0  0  0  0
    7.6058   -0.8723   22.3520 O   0  0  0  0  0  0  0  0  0  0  0  0
   11.5668   -0.2690   23.0742 C   0  0  0  0  0  0  0  0  0  0  0  0
   10.2860   -0.2490   22.2938 O   0  0  0  0  0  0  0  0  0  0  0  0
   11.7789   -1.3016   24.1413 N   0  0  0  0  0  0  0  0  0  0  0  0
   13.0597   -1.3217   24.9216 C   0  0  0  0  0  0  0  0  0  0  0  0
   13.2717   -2.3543   25.9887 C   0  0  0  0  0  0  0  0  0  0  0  0
   12.2029   -3.3670   26.2754 C   0  0  0  0  0  0  0  0  0  0  0  0
   10.9221   -3.3469   25.4950 C   0  0  0  0  0  0  0  0  0  0  0  0
    9.8532   -4.3596   25.7817 C   0  0  0  0  0  0  0  0  0  0  0  0
    8.5724   -4.3396   25.0013 C   0  0  0  0  0  0  0  0  0  0  0  0
    8.3604   -3.3069   23.9342 C   0  0  0  0  0  0  0  0  0  0  0  0
    9.4292   -2.2943   23.6475 C   0  0  0  0  0  0  0  0  0  0  0  0
   10.7101   -2.3143   24.4279 C   0  0  0  0  0  0  0  0  0  0  0  0
   12.2987    2.2052   22.7700 C   0  0  0  0  0  0  0  0  0  0  0  0
   12.6356    0.7436   22.7875 C   0  0  0  0  0  0  0  0  0  0  0  0
    6.1760   -4.4842   23.1645 N   0  0  0  0  0  0  0  0  0  0  0  0
    6.0521   -5.3412   21.9397 C   0  0  0  0  0  0  0  0  0  0  0  0
    5.3963   -4.8244   24.3999 C   0  0  0  0  0  0  0  0  0  0  0  0
    5.1578   -6.2597   24.7648 C   0  0  0  0  0  0  0  0  0  0  0  0
    4.3782   -6.5999   26.0002 C   0  0  0  0  0  0  0  0  0  0  0  0
    3.8370   -5.5049   26.8709 C   0  0  0  0  0  0  0  0  0  0  0  0
    4.0755   -4.0697   26.5060 C   0  0  0  0  0  0  0  0  0  0  0  0
    3.5343   -2.9745   27.3767 Cl  0  0  0  0  0  0  0  0  0  0  0  0
    4.8551   -3.7294   25.2706 C   0  0  0  0  0  0  0  0  0  0  0  0
    5.4214   -2.0496   21.5823 C   0  0  0  0  0  0  0  0  0  0  0  0
    5.2656   -1.1138   20.4204 C   0  0  0  0  0  0  0  0  0  0  0  0
    5.7144   -1.5352   19.0526 C   0  0  0  0  0  0  0  0  0  0  0  0
    5.5586   -0.5994   17.8907 N   0  0  0  0  0  0  0  0  0  0  0  0
    4.9540    0.7578   18.0966 C   0  0  0  0  0  0  0  0  0  0  0  0
    4.5053    1.1792   19.4644 C   0  0  0  0  0  0  0  0  0  0  0  0
    3.9007    2.5365   19.6704 C   0  0  0  0  0  0  0  0  0  0  0  0
    3.4519    2.9579   21.0382 C   0  0  0  0  0  0  0  0  0  0  0  0
    3.6077    2.0221   22.2001 C   0  0  0  0  0  0  0  0  0  0  0  0
    4.2122    0.6649   21.9942 C   0  0  0  0  0  0  0  0  0  0  0  0
    4.6610    0.2434   20.6263 C   0  0  0  0  0  0  0  0  0  0  0  0
 16 17  1  0  0  0
 17  4  1  0  0  0
  4  5  2  0  0  0
  4  6  1  0  0  0
  6  7  1  0  0  0
  7  8  1  0  0  0
  8  9  1  0  0  0
  9 10  1  0  0  0
 10 11  2  0  0  0
 11 12  1  0  0  0
 12 13  2  0  0  0
 13  1  1  0  0  0
  1  2  1  0  0  0
  2  3  2  0  0  0
  2 27  1  0  0  0
 27 28  1  0  0  0
 28 29  2  0  0  0
 29 30  1  0  0  0
 30 31  2  0  0  0
 31 32  1  0  0  0
 32 33  2  0  0  0
 33 34  1  0  0  0
 34 35  2  0  0  0
 35 36  1  0  0  0
 36 37  2  0  0  0
  1 18  1  0  0  0
 18 19  1  0  0  0
 18 20  1  0  0  0
 20 21  2  0  0  0
 21 22  1  0  0  0
 22 23  2  0  0  0
 23 24  1  0  0  0
 24 25  1  0  0  0
 24 26  2  0  0  0
 13 14  1  0  0  0
 14 15  2  0  0  0
 15  6  1  0  0  0
 15 10  1  0  0  0
 37 28  1  0  0  0
 26 20  1  0  0  0
 37 32  1  0  0  0
M  END
> <minimizedAffinity>
-9.00289

> <CNNscore>
0.5485929251

> <CNNaffinity>
7.1018815041

> <CNN_VS>
3.8960418701

> <CNNaffinity_variance>
0.1221388355

$$$$



 37 41  0  0  0  0  0  0  0  0999 V2000
    6.6428   -1.7832   24.4169 N   0  0  0  0  0  0  0  0  0  0  0  0
    6.4810   -0.7638   23.3285 C   0  0  0  0  0  0  0  0  0  0  0  0
    7.6847   -0.0607   22.7745 O   0  0  0  0  0  0  0  0  0  0  0  0
   11.6118    0.0591   23.3373 C   0  0  0  0  0  0  0  0  0  0  0  0
   10.2464    0.3755   22.8029 O   0  0  0  0  0  0  0  0  0  0  0  0
   11.7761   -0.9768   24.4097 N   0  0  0  0  0  0  0  0  0  0  0  0
   13.1414   -1.2931   24.9440 C   0  0  0  0  0  0  0  0  0  0  0  0
   13.3057   -2.3290   26.0164 C   0  0  0  0  0  0  0  0  0  0  0  0
   12.1046   -3.0485   26.5544 C   0  0  0  0  0  0  0  0  0  0  0  0
   10.7392   -2.7322   26.0200 C   0  0  0  0  0  0  0  0  0  0  0  0
    9.5379   -3.4517   26.5580 C   0  0  0  0  0  0  0  0  0  0  0  0
    8.1726   -3.1354   26.0237 C   0  0  0  0  0  0  0  0  0  0  0  0
    8.0083   -2.0995   24.9513 C   0  0  0  0  0  0  0  0  0  0  0  0
    9.2094   -1.3800   24.4133 C   0  0  0  0  0  0  0  0  0  0  0  0
   10.5749   -1.6963   24.9477 C   0  0  0  0  0  0  0  0  0  0  0  0
   12.7416    2.2501   22.5171 C   0  0  0  0  0  0  0  0  0  0  0  0
   12.8129    0.7787   22.7993 C   0  0  0  0  0  0  0  0  0  0  0  0
    5.4392   -2.4862   24.9710 N   0  0  0  0  0  0  0  0  0  0  0  0
    4.5575   -1.7923   25.9664 C   0  0  0  0  0  0  0  0  0  0  0  0
    5.1174   -3.8832   24.5296 C   0  0  0  0  0  0  0  0  0  0  0  0
    4.4129   -4.8214   25.4641 C   0  0  0  0  0  0  0  0  0  0  0  0
    4.0910   -6.2184   25.0228 C   0  0  0  0  0  0  0  0  0  0  0  0
    4.4736   -6.6772   23.6469 C   0  0  0  0  0  0  0  0  0  0  0  0
    5.1781   -5.7389   22.7124 C   0  0  0  0  0  0  0  0  0  0  0  0
    5.5607   -6.1977   21.3364 Cl  0  0  0  0  0  0  0  0  0  0  0  0
    5.5000   -4.3419   23.1537 C   0  0  0  0  0  0  0  0  0  0  0  0
    5.1156   -0.4474   22.7942 C   0  0  0  0  0  0  0  0  0  0  0  0
    4.9490   -0.0259   21.3643 C   0  0  0  0  0  0  0  0  0  0  0  0
    5.6615   -0.7711   20.2748 C   0  0  0  0  0  0  0  0  0  0  0  0
    5.4948   -0.3496   18.8449 N   0  0  0  0  0  0  0  0  0  0  0  0
    4.6156    0.8170   18.5045 C   0  0  0  0  0  0  0  0  0  0  0  0
    3.9030    1.5621   19.5940 C   0  0  0  0  0  0  0  0  0  0  0  0
    3.0237    2.7288   19.2536 C   0  0  0  0  0  0  0  0  0  0  0  0
    2.3112    3.4739   20.3431 C   0  0  0  0  0  0  0  0  0  0  0  0
    2.4779    3.0525   21.7730 C   0  0  0  0  0  0  0  0  0  0  0  0
    3.3571    1.8859   22.1134 C   0  0  0  0  0  0  0  0  0  0  0  0
    4.0697    1.1407   21.0239 C   0  0  0  0  0  0  0  0  0  0  0  0
 16 17  1  0  0  0
 17  4  1  0  0  0
  4  5  2  0  0  0
  4  6  1  0  0  0
  6  7  1  0  0  0
  7  8  1  0  0  0
  8  9  1  0  0  0
  9 10  1  0  0  0
 10 11  2  0  0  0
 11 12  1  0  0  0
 12 13  2  0  0  0
 13  1  1  0  0  0
  1  2  1  0  0  0
  2  3  2  0  0  0
  2 27  1  0  0  0
 27 28  1  0  0  0
 28 29  2  0  0  0
 29 30  1  0  0  0
 30 31  2  0  0  0
 31 32  1  0  0  0
 32 33  2  0  0  0
 33 34  1  0  0  0
 34 35  2  0  0  0
 35 36  1  0  0  0
 36 37  2  0  0  0
  1 18  1  0  0  0
 18 19  1  0  0  0
 18 20  1  0  0  0
 20 21  2  0  0  0
 21 22  1  0  0  0
 22 23  2  0  0  0
 23 24  1  0  0  0
 24 25  1  0  0  0
 24 26  2  0  0  0
 13 14  1  0  0  0
 14 15  2  0  0  0
 15  6  1  0  0  0
 15 10  1  0  0  0
 37 28  1  0  0  0
 26 20  1  0  0  0
 37 32  1  0  0  0
M  END
> <minimizedAffinity>
-8.17407

> <CNNscore>
0.4734188318

> <CNNaffinity>
7.0627045631

> <CNN_VS>
3.3436174393

> <CNNaffinity_variance>
0.0384893231

$$$$



 37 41  0  0  0  0  0  0  0  0999 V2000
    7.9178   -0.4586   23.6431 N   0  0  0  0  0  0  0  0  0  0  0  0
    7.0740   -0.5316   22.4051 C   0  0  0  0  0  0  0  0  0  0  0  0
    5.8203   -1.3553   22.3994 O   0  0  0  0  0  0  0  0  0  0  0  0
    4.8765    0.7684   27.9438 C   0  0  0  0  0  0  0  0  0  0  0  0
    5.2864    1.5191   26.7115 O   0  0  0  0  0  0  0  0  0  0  0  0
    5.3438   -0.6415   28.1533 N   0  0  0  0  0  0  0  0  0  0  0  0
    4.9340   -1.3922   29.3855 C   0  0  0  0  0  0  0  0  0  0  0  0
    5.4012   -2.8021   29.5950 C   0  0  0  0  0  0  0  0  0  0  0  0
    6.2783   -3.4613   28.5722 C   0  0  0  0  0  0  0  0  0  0  0  0
    6.6882   -2.7106   27.3400 C   0  0  0  0  0  0  0  0  0  0  0  0
    7.5653   -3.3698   26.3171 C   0  0  0  0  0  0  0  0  0  0  0  0
    7.9751   -2.6191   25.0849 C   0  0  0  0  0  0  0  0  0  0  0  0
    7.5079   -1.2093   24.8754 C   0  0  0  0  0  0  0  0  0  0  0  0
    6.6308   -0.5500   25.8982 C   0  0  0  0  0  0  0  0  0  0  0  0
    6.2209   -1.3007   27.1305 C   0  0  0  0  0  0  0  0  0  0  0  0
    4.6146    2.1839   30.1066 C   0  0  0  0  0  0  0  0  0  0  0  0
    3.9994    1.4276   28.9665 C   0  0  0  0  0  0  0  0  0  0  0  0
    9.1714    0.3650   23.6488 N   0  0  0  0  0  0  0  0  0  0  0  0
    9.0873    1.8580   23.7669 C   0  0  0  0  0  0  0  0  0  0  0  0
   10.5090   -0.3043   23.5365 C   0  0  0  0  0  0  0  0  0  0  0  0
   11.1057   -0.5659   22.1854 C   0  0  0  0  0  0  0  0  0  0  0  0
   12.4434   -1.2353   22.0731 C   0  0  0  0  0  0  0  0  0  0  0  0
   13.1844   -1.6429   23.3119 C   0  0  0  0  0  0  0  0  0  0  0  0
   12.5878   -1.3813   24.6630 C   0  0  0  0  0  0  0  0  0  0  0  0
   13.3288   -1.7890   25.9019 Cl  0  0  0  0  0  0  0  0  0  0  0  0
   11.2501   -0.7120   24.7753 C   0  0  0  0  0  0  0  0  0  0  0  0
    7.4838    0.2190   21.1728 C   0  0  0  0  0  0  0  0  0  0  0  0
    6.5136    0.3908   20.0418 C   0  0  0  0  0  0  0  0  0  0  0  0
    6.6546   -0.4388   18.8001 C   0  0  0  0  0  0  0  0  0  0  0  0
    5.6843   -0.2670   17.6691 N   0  0  0  0  0  0  0  0  0  0  0  0
    4.5731    0.7344   17.7798 C   0  0  0  0  0  0  0  0  0  0  0  0
    4.4320    1.5640   19.0216 C   0  0  0  0  0  0  0  0  0  0  0  0
    3.3207    2.5654   19.1323 C   0  0  0  0  0  0  0  0  0  0  0  0
    3.1797    3.3950   20.3740 C   0  0  0  0  0  0  0  0  0  0  0  0
    4.1499    3.2232   21.5050 C   0  0  0  0  0  0  0  0  0  0  0  0
    5.2612    2.2218   21.3943 C   0  0  0  0  0  0  0  0  0  0  0  0
    5.4023    1.3922   20.1525 C   0  0  0  0  0  0  0  0  0  0  0  0
 16 17  1  0  0  0
 17  4  1  0  0  0
  4  5  2  0  0  0
  4  6  1  0  0  0
  6  7  1  0  0  0
  7  8  1  0  0  0
  8  9  1  0  0  0
  9 10  1  0  0  0
 10 11  2  0  0  0
 11 12  1  0  0  0
 12 13  2  0  0  0
 13  1  1  0  0  0
  1  2  1  0  0  0
  2  3  2  0  0  0
  2 27  1  0  0  0
 27 28  1  0  0  0
 28 29  2  0  0  0
 29 30  1  0  0  0
 30 31  2  0  0  0
 31 32  1  0  0  0
 32 33  2  0  0  0
 33 34  1  0  0  0
 34 35  2  0  0  0
 35 36  1  0  0  0
 36 37  2  0  0  0
  1 18  1  0  0  0
 18 19  1  0  0  0
 18 20  1  0  0  0
 20 21  2  0  0  0
 21 22  1  0  0  0
 22 23  2  0  0  0
 23 24  1  0  0  0
 24 25  1  0  0  0
 24 26  2  0  0  0
 13 14  1  0  0  0
 14 15  2  0  0  0
 15  6  1  0  0  0
 15 10  1  0  0  0
 37 28  1  0  0  0
 26 20  1  0  0  0
 37 32  1  0  0  0
M  END
> <minimizedAffinity>
-8.13544

> <CNNscore>
0.4691500068

> <CNNaffinity>
6.7706465721

> <CNN_VS>
3.1764488220

> <CNNaffinity_variance>
0.2569415569

$$$$



 37 41  0  0  0  0  0  0  0  0999 V2000
    6.5526   -1.2600   22.3099 N   0  0  0  0  0  0  0  0  0  0  0  0
    8.0101   -1.3973   21.9834 C   0  0  0  0  0  0  0  0  0  0  0  0
    8.5844   -0.6778   20.7991 O   0  0  0  0  0  0  0  0  0  0  0  0
    2.2596    1.8756   23.3044 C   0  0  0  0  0  0  0  0  0  0  0  0
    3.1428    1.0189   24.1622 O   0  0  0  0  0  0  0  0  0  0  0  0
    2.5129    1.9727   21.8292 N   0  0  0  0  0  0  0  0  0  0  0  0
    1.6297    2.8294   20.9713 C   0  0  0  0  0  0  0  0  0  0  0  0
    1.8829    2.9265   19.4961 C   0  0  0  0  0  0  0  0  0  0  0  0
    3.0195    2.1670   18.8786 C   0  0  0  0  0  0  0  0  0  0  0  0
    3.9027    1.3103   19.7364 C   0  0  0  0  0  0  0  0  0  0  0  0
    5.0393    0.5506   19.1190 C   0  0  0  0  0  0  0  0  0  0  0  0
    5.9225   -0.3061   19.9768 C   0  0  0  0  0  0  0  0  0  0  0  0
    5.6692   -0.4032   21.4521 C   0  0  0  0  0  0  0  0  0  0  0  0
    4.5327    0.3564   22.0695 C   0  0  0  0  0  0  0  0  0  0  0  0
    3.6494    1.2131   21.2117 C   0  0  0  0  0  0  0  0  0  0  0  0
   -0.2477    2.0278   23.9680 C   0  0  0  0  0  0  0  0  0  0  0  0
    1.1231    2.6352   23.9219 C   0  0  0  0  0  0  0  0  0  0  0  0
    5.9783   -1.9794   23.4942 N   0  0  0  0  0  0  0  0  0  0  0  0
    5.5168   -1.2032   24.6919 C   0  0  0  0  0  0  0  0  0  0  0  0
    5.8654   -3.4751   23.4808 C   0  0  0  0  0  0  0  0  0  0  0  0
    5.8521   -4.2379   24.7723 C   0  0  0  0  0  0  0  0  0  0  0  0
    5.7393   -5.7336   24.7589 C   0  0  0  0  0  0  0  0  0  0  0  0
    5.6398   -6.4665   23.4540 C   0  0  0  0  0  0  0  0  0  0  0  0
    5.6531   -5.7038   22.1625 C   0  0  0  0  0  0  0  0  0  0  0  0
    5.5537   -6.4368   20.8575 Cl  0  0  0  0  0  0  0  0  0  0  0  0
    5.7660   -4.2081   22.1759 C   0  0  0  0  0  0  0  0  0  0  0  0
    8.8934   -2.2540   22.8412 C   0  0  0  0  0  0  0  0  0  0  0  0
   10.2483   -1.7586   23.2523 C   0  0  0  0  0  0  0  0  0  0  0  0
   10.9027   -0.6448   22.4900 C   0  0  0  0  0  0  0  0  0  0  0  0
   12.2575   -0.1494   22.9012 N   0  0  0  0  0  0  0  0  0  0  0  0
   12.9580   -0.7679   24.0745 C   0  0  0  0  0  0  0  0  0  0  0  0
   12.3036   -1.8818   24.8367 C   0  0  0  0  0  0  0  0  0  0  0  0
   13.0040   -2.5004   26.0101 C   0  0  0  0  0  0  0  0  0  0  0  0
   12.3496   -3.6142   26.7724 C   0  0  0  0  0  0  0  0  0  0  0  0
   10.9948   -4.1096   26.3613 C   0  0  0  0  0  0  0  0  0  0  0  0
   10.2943   -3.4911   25.1879 C   0  0  0  0  0  0  0  0  0  0  0  0
   10.9487   -2.3771   24.4256 C   0  0  0  0  0  0  0  0  0  0  0  0
 16 17  1  0  0  0
 17  4  1  0  0  0
  4  5  2  0  0  0
  4  6  1  0  0  0
  6  7  1  0  0  0
  7  8  1  0  0  0
  8  9  1  0  0  0
  9 10  1  0  0  0
 10 11  2  0  0  0
 11 12  1  0  0  0
 12 13  2  0  0  0
 13  1  1  0  0  0
  1  2  1  0  0  0
  2  3  2  0  0  0
  2 27  1  0  0  0
 27 28  1  0  0  0
 28 29  2  0  0  0
 29 30  1  0  0  0
 30 31  2  0  0  0
 31 32  1  0  0  0
 32 33  2  0  0  0
 33 34  1  0  0  0
 34 35  2  0  0  0
 35 36  1  0  0  0
 36 37  2  0  0  0
  1 18  1  0  0  0
 18 19  1  0  0  0
 18 20  1  0  0  0
 20 21  2  0  0  0
 21 22  1  0  0  0
 22 23  2  0  0  0
 23 24  1  0  0  0
 24 25  1  0  0  0
 24 26  2  0  0  0
 13 14  1  0  0  0
 14 15  2  0  0  0
 15  6  1  0  0  0
 15 10  1  0  0  0
 37 28  1  0  0  0
 26 20  1  0  0  0
 37 32  1  0  0  0
M  END
> <minimizedAffinity>
-8.60299

> <CNNscore>
0.4609137177

> <CNNaffinity>
6.9458642006

> <CNN_VS>
3.2014441490

> <CNNaffinity_variance>
0.0520926192

$$$$



 37 41  0  0  0  0  0  0  0  0999 V2000
    7.6520   -0.0974   23.0211 N   0  0  0  0  0  0  0  0  0  0  0  0
    7.4703    0.2978   24.4567 C   0  0  0  0  0  0  0  0  0  0  0  0
    6.3217    1.1775   24.8529 O   0  0  0  0  0  0  0  0  0  0  0  0
    2.5076    1.5651   23.1698 C   0  0  0  0  0  0  0  0  0  0  0  0
    3.4744    1.0805   24.2092 O   0  0  0  0  0  0  0  0  0  0  0  0
    2.9332    1.6571   21.7344 N   0  0  0  0  0  0  0  0  0  0  0  0
    1.9664    2.1417   20.6950 C   0  0  0  0  0  0  0  0  0  0  0  0
    2.3920    2.2337   19.2596 C   0  0  0  0  0  0  0  0  0  0  0  0
    3.7844    1.8411   18.8636 C   0  0  0  0  0  0  0  0  0  0  0  0
    4.7513    1.3565   19.9030 C   0  0  0  0  0  0  0  0  0  0  0  0
    6.1438    0.9639   19.5069 C   0  0  0  0  0  0  0  0  0  0  0  0
    7.1106    0.4793   20.5463 C   0  0  0  0  0  0  0  0  0  0  0  0
    6.6850    0.3873   21.9817 C   0  0  0  0  0  0  0  0  0  0  0  0
    5.2926    0.7799   22.3778 C   0  0  0  0  0  0  0  0  0  0  0  0
    4.3256    1.2645   21.3384 C   0  0  0  0  0  0  0  0  0  0  0  0
    0.5812    1.5704   24.9130 C   0  0  0  0  0  0  0  0  0  0  0  0
    1.1151    1.9577   23.5658 C   0  0  0  0  0  0  0  0  0  0  0  0
    8.8005   -0.9771   22.6249 N   0  0  0  0  0  0  0  0  0  0  0  0
    8.5529   -2.4055   22.2398 C   0  0  0  0  0  0  0  0  0  0  0  0
   10.1965   -0.4284   22.6138 C   0  0  0  0  0  0  0  0  0  0  0  0
   11.3600   -1.3432   22.3706 C   0  0  0  0  0  0  0  0  0  0  0  0
   12.7560   -0.7945   22.3595 C   0  0  0  0  0  0  0  0  0  0  0  0
   12.9885    0.6690   22.5917 C   0  0  0  0  0  0  0  0  0  0  0  0
   11.8249    1.5839   22.8350 C   0  0  0  0  0  0  0  0  0  0  0  0
   12.0574    3.0475   23.0672 Cl  0  0  0  0  0  0  0  0  0  0  0  0
   10.4289    1.0352   22.8461 C   0  0  0  0  0  0  0  0  0  0  0  0
    8.4372   -0.1868   25.4961 C   0  0  0  0  0  0  0  0  0  0  0  0
    8.7380   -1.6515   25.6158 C   0  0  0  0  0  0  0  0  0  0  0  0
    7.6247   -2.6542   25.5431 C   0  0  0  0  0  0  0  0  0  0  0  0
    7.9256   -4.1188   25.6628 N   0  0  0  0  0  0  0  0  0  0  0  0
    9.3396   -4.5808   25.8552 C   0  0  0  0  0  0  0  0  0  0  0  0
   10.4528   -3.5781   25.9279 C   0  0  0  0  0  0  0  0  0  0  0  0
   11.8669   -4.0400   26.1203 C   0  0  0  0  0  0  0  0  0  0  0  0
   12.9801   -3.0373   26.1930 C   0  0  0  0  0  0  0  0  0  0  0  0
   12.6793   -1.5727   26.0733 C   0  0  0  0  0  0  0  0  0  0  0  0
   11.2653   -1.1107   25.8809 C   0  0  0  0  0  0  0  0  0  0  0  0
   10.1520   -2.1134   25.8082 C   0  0  0  0  0  0  0  0  0  0  0  0
 16 17  1  0  0  0
 17  4  1  0  0  0
  4  5  2  0  0  0
  4  6  1  0  0  0
  6  7  1  0  0  0
  7  8  1  0  0  0
  8  9  1  0  0  0
  9 10  1  0  0  0
 10 11  2  0  0  0
 11 12  1  0  0  0
 12 13  2  0  0  0
 13  1  1  0  0  0
  1  2  1  0  0  0
  2  3  2  0  0  0
  2 27  1  0  0  0
 27 28  1  0  0  0
 28 29  2  0  0  0
 29 30  1  0  0  0
 30 31  2  0  0  0
 31 32  1  0  0  0
 32 33  2  0  0  0
 33 34  1  0  0  0
 34 35  2  0  0  0
 35 36  1  0  0  0
 36 37  2  0  0  0
  1 18  1  0  0  0
 18 19  1  0  0  0
 18 20  1  0  0  0
 20 21  2  0  0  0
 21 22  1  0  0  0
 22 23  2  0  0  0
 23 24  1  0  0  0
 24 25  1  0  0  0
 24 26  2  0  0  0
 13 14  1  0  0  0
 14 15  2  0  0  0
 15  6  1  0  0  0
 15 10  1  0  0  0
 37 28  1  0  0  0
 26 20  1  0  0  0
 37 32  1  0  0  0
M  END
> <minimizedAffinity>
-8.48232

> <CNNscore>
0.4480887949

> <CNNaffinity>
6.8296995163

> <CNN_VS>
3.0603117943

> <CNNaffinity_variance>
0.0756820962

$$$$



 37 41  0  0  0  0  0  0  0  0999 V2000
    7.2154   -0.4342   23.0105 N   0  0  0  0  0  0  0  0  0  0  0  0
    8.6004   -0.7633   22.5375 C   0  0  0  0  0  0  0  0  0  0  0  0
    9.5233    0.3344   22.0977 O   0  0  0  0  0  0  0  0  0  0  0  0
    3.6093    2.4073   20.1518 C   0  0  0  0  0  0  0  0  0  0  0  0
    4.0713    0.9806   20.1186 O   0  0  0  0  0  0  0  0  0  0  0  0
    4.1954    3.3624   21.1489 N   0  0  0  0  0  0  0  0  0  0  0  0
    3.7335    4.7891   21.1821 C   0  0  0  0  0  0  0  0  0  0  0  0
    4.3195    5.7442   22.1792 C   0  0  0  0  0  0  0  0  0  0  0  0
    5.3675    5.2726   23.1432 C   0  0  0  0  0  0  0  0  0  0  0  0
    5.8295    3.8460   23.1100 C   0  0  0  0  0  0  0  0  0  0  0  0
    6.8775    3.3743   24.0740 C   0  0  0  0  0  0  0  0  0  0  0  0
    7.3395    1.9476   24.0408 C   0  0  0  0  0  0  0  0  0  0  0  0
    6.7534    0.9925   23.0436 C   0  0  0  0  0  0  0  0  0  0  0  0
    5.7054    1.4641   22.0797 C   0  0  0  0  0  0  0  0  0  0  0  0
    5.2434    2.8908   22.1128 C   0  0  0  0  0  0  0  0  0  0  0  0
    1.1096    2.6478   19.4860 C   0  0  0  0  0  0  0  0  0  0  0  0
    2.5613    2.8789   19.1878 C   0  0  0  0  0  0  0  0  0  0  0  0
    6.2925   -1.5318   23.4502 N   0  0  0  0  0  0  0  0  0  0  0  0
    5.9066   -2.6171   22.4895 C   0  0  0  0  0  0  0  0  0  0  0  0
    5.7555   -1.5441   24.8508 C   0  0  0  0  0  0  0  0  0  0  0  0
    4.5255   -0.7552   25.1894 C   0  0  0  0  0  0  0  0  0  0  0  0
    3.9885   -0.7675   26.5899 C   0  0  0  0  0  0  0  0  0  0  0  0
    4.6815   -1.5687   27.6518 C   0  0  0  0  0  0  0  0  0  0  0  0
    5.9116   -2.3576   27.3133 C   0  0  0  0  0  0  0  0  0  0  0  0
    6.6047   -3.1588   28.3752 Cl  0  0  0  0  0  0  0  0  0  0  0  0
    6.4485   -2.3453   25.9127 C   0  0  0  0  0  0  0  0  0  0  0  0
    9.0624   -2.1899   22.5043 C   0  0  0  0  0  0  0  0  0  0  0  0
    9.5413   -2.8526   23.7619 C   0  0  0  0  0  0  0  0  0  0  0  0
    8.6969   -3.8991   24.4266 C   0  0  0  0  0  0  0  0  0  0  0  0
    9.1758   -4.5618   25.6841 N   0  0  0  0  0  0  0  0  0  0  0  0
   10.4991   -4.1781   26.2770 C   0  0  0  0  0  0  0  0  0  0  0  0
   11.3435   -3.1316   25.6124 C   0  0  0  0  0  0  0  0  0  0  0  0
   12.6668   -2.7478   26.2052 C   0  0  0  0  0  0  0  0  0  0  0  0
   13.5112   -1.7013   25.5406 C   0  0  0  0  0  0  0  0  0  0  0  0
   13.0323   -1.0386   24.2830 C   0  0  0  0  0  0  0  0  0  0  0  0
   11.7090   -1.4224   23.6901 C   0  0  0  0  0  0  0  0  0  0  0  0
   10.8646   -2.4689   24.3548 C   0  0  0  0  0  0  0  0  0  0  0  0
 16 17  1  0  0  0
 17  4  1  0  0  0
  4  5  2  0  0  0
  4  6  1  0  0  0
  6  7  1  0  0  0
  7  8  1  0  0  0
  8  9  1  0  0  0
  9 10  1  0  0  0
 10 11  2  0  0  0
 11 12  1  0  0  0
 12 13  2  0  0  0
 13  1  1  0  0  0
  1  2  1  0  0  0
  2  3  2  0  0  0
  2 27  1  0  0  0
 27 28  1  0  0  0
 28 29  2  0  0  0
 29 30  1  0  0  0
 30 31  2  0  0  0
 31 32  1  0  0  0
 32 33  2  0  0  0
 33 34  1  0  0  0
 34 35  2  0  0  0
 35 36  1  0  0  0
 36 37  2  0  0  0
  1 18  1  0  0  0
 18 19  1  0  0  0
 18 20  1  0  0  0
 20 21  2  0  0  0
 21 22  1  0  0  0
 22 23  2  0  0  0
 23 24  1  0  0  0
 24 25  1  0  0  0
 24 26  2  0  0  0
 13 14  1  0  0  0
 14 15  2  0  0  0
 15  6  1  0  0  0
 15 10  1  0  0  0
 37 28  1  0  0  0
 26 20  1  0  0  0
 37 32  1  0  0  0
M  END
> <minimizedAffinity>
-7.75018

> <CNNscore>
0.4357147813

> <CNNaffinity>
6.8673744202

> <CNN_VS>
2.9922165871

> <CNNaffinity_variance>
0.1386185884

$$$$



 37 41  0  0  0  0  0  0  0  0999 V2000
    6.6584   -1.4961   23.9386 N   0  0  0  0  0  0  0  0  0  0  0  0
    7.7891   -1.4115   22.9565 C   0  0  0  0  0  0  0  0  0  0  0  0
    7.7131   -0.4516   21.8063 O   0  0  0  0  0  0  0  0  0  0  0  0
    4.4056    1.0129   19.7101 C   0  0  0  0  0  0  0  0  0  0  0  0
    5.6121    0.1378   19.8782 O   0  0  0  0  0  0  0  0  0  0  0  0
    3.5478    1.3435   20.8954 N   0  0  0  0  0  0  0  0  0  0  0  0
    2.3412    2.2186   20.7272 C   0  0  0  0  0  0  0  0  0  0  0  0
    1.4834    2.5492   21.9125 C   0  0  0  0  0  0  0  0  0  0  0  0
    1.8321    2.0046   23.2659 C   0  0  0  0  0  0  0  0  0  0  0  0
    3.0387    1.1294   23.4340 C   0  0  0  0  0  0  0  0  0  0  0  0
    3.3874    0.5848   24.7875 C   0  0  0  0  0  0  0  0  0  0  0  0
    4.5940   -0.2903   24.9556 C   0  0  0  0  0  0  0  0  0  0  0  0
    5.4518   -0.6209   23.7704 C   0  0  0  0  0  0  0  0  0  0  0  0
    5.1031   -0.0763   22.4170 C   0  0  0  0  0  0  0  0  0  0  0  0
    3.8965    0.7989   22.2488 C   0  0  0  0  0  0  0  0  0  0  0  0
    4.9507    1.2817   17.1841 C   0  0  0  0  0  0  0  0  0  0  0  0
    4.0569    1.5575   18.3567 C   0  0  0  0  0  0  0  0  0  0  0  0
    6.7343   -2.4559   25.0888 N   0  0  0  0  0  0  0  0  0  0  0  0
    7.3176   -2.0131   26.3978 C   0  0  0  0  0  0  0  0  0  0  0  0
    6.2269   -3.8585   24.9299 C   0  0  0  0  0  0  0  0  0  0  0  0
    5.0083   -4.3049   25.6820 C   0  0  0  0  0  0  0  0  0  0  0  0
    4.5009   -5.7075   25.5232 C   0  0  0  0  0  0  0  0  0  0  0  0
    5.2121   -6.6637   24.6123 C   0  0  0  0  0  0  0  0  0  0  0  0
    6.4306   -6.2173   23.8601 C   0  0  0  0  0  0  0  0  0  0  0  0
    7.1419   -7.1735   22.9491 Cl  0  0  0  0  0  0  0  0  0  0  0  0
    6.9381   -4.8147   24.0190 C   0  0  0  0  0  0  0  0  0  0  0  0
    8.9956   -2.2866   23.1247 C   0  0  0  0  0  0  0  0  0  0  0  0
   10.3535   -1.6694   23.2834 C   0  0  0  0  0  0  0  0  0  0  0  0
   10.8093   -0.6042   22.3308 C   0  0  0  0  0  0  0  0  0  0  0  0
   12.1672    0.0130   22.4896 N   0  0  0  0  0  0  0  0  0  0  0  0
   13.0694   -0.4351   23.6010 C   0  0  0  0  0  0  0  0  0  0  0  0
   12.6136   -1.5004   24.5536 C   0  0  0  0  0  0  0  0  0  0  0  0
   13.5159   -1.9485   25.6650 C   0  0  0  0  0  0  0  0  0  0  0  0
   13.0601   -3.0138   26.6176 C   0  0  0  0  0  0  0  0  0  0  0  0
   11.7022   -3.6309   26.4589 C   0  0  0  0  0  0  0  0  0  0  0  0
   10.8000   -3.1828   25.3475 C   0  0  0  0  0  0  0  0  0  0  0  0
   11.2557   -2.1175   24.3948 C   0  0  0  0  0  0  0  0  0  0  0  0
 16 17  1  0  0  0
 17  4  1  0  0  0
  4  5  2  0  0  0
  4  6  1  0  0  0
  6  7  1  0  0  0
  7  8  1  0  0  0
  8  9  1  0  0  0
  9 10  1  0  0  0
 10 11  2  0  0  0
 11 12  1  0  0  0
 12 13  2  0  0  0
 13  1  1  0  0  0
  1  2  1  0  0  0
  2  3  2  0  0  0
  2 27  1  0  0  0
 27 28  1  0  0  0
 28 29  2  0  0  0
 29 30  1  0  0  0
 30 31  2  0  0  0
 31 32  1  0  0  0
 32 33  2  0  0  0
 33 34  1  0  0  0
 34 35  2  0  0  0
 35 36  1  0  0  0
 36 37  2  0  0  0
  1 18  1  0  0  0
 18 19  1  0  0  0
 18 20  1  0  0  0
 20 21  2  0  0  0
 21 22  1  0  0  0
 22 23  2  0  0  0
 23 24  1  0  0  0
 24 25  1  0  0  0
 24 26  2  0  0  0
 13 14  1  0  0  0
 14 15  2  0  0  0
 15  6  1  0  0  0
 15 10  1  0  0  0
 37 28  1  0  0  0
 26 20  1  0  0  0
 37 32  1  0  0  0
M  END
> <minimizedAffinity>
-8.56129

> <CNNscore>
0.4188440144

> <CNNaffinity>
6.9731569290

> <CNN_VS>
2.9206650257

> <CNNaffinity_variance>
0.1019267216

$$$$



 37 41  0  0  0  0  0  0  0  0999 V2000
    7.2825   -0.6843   23.7343 N   0  0  0  0  0  0  0  0  0  0  0  0
    6.6275   -0.8616   22.3966 C   0  0  0  0  0  0  0  0  0  0  0  0
    5.3843   -1.6920   22.2744 O   0  0  0  0  0  0  0  0  0  0  0  0
    5.1010   -5.5384   24.6982 C   0  0  0  0  0  0  0  0  0  0  0  0
    5.6892   -4.8853   23.4827 O   0  0  0  0  0  0  0  0  0  0  0  0
    5.0439   -4.7912   25.9976 N   0  0  0  0  0  0  0  0  0  0  0  0
    4.4557   -5.4443   27.2131 C   0  0  0  0  0  0  0  0  0  0  0  0
    4.3986   -4.6971   28.5125 C   0  0  0  0  0  0  0  0  0  0  0  0
    4.9297   -3.2968   28.5964 C   0  0  0  0  0  0  0  0  0  0  0  0
    5.5178   -2.6437   27.3809 C   0  0  0  0  0  0  0  0  0  0  0  0
    6.0490   -1.2434   27.4648 C   0  0  0  0  0  0  0  0  0  0  0  0
    6.6371   -0.5903   26.2493 C   0  0  0  0  0  0  0  0  0  0  0  0
    6.6943   -1.3375   24.9499 C   0  0  0  0  0  0  0  0  0  0  0  0
    6.1632   -2.7378   24.8660 C   0  0  0  0  0  0  0  0  0  0  0  0
    5.5750   -3.3909   26.0815 C   0  0  0  0  0  0  0  0  0  0  0  0
    3.1216   -7.1742   24.3031 C   0  0  0  0  0  0  0  0  0  0  0  0
    4.5699   -6.9387   24.6143 C   0  0  0  0  0  0  0  0  0  0  0  0
    8.5256    0.1461   23.8566 N   0  0  0  0  0  0  0  0  0  0  0  0
    8.4284    1.6427   23.8813 C   0  0  0  0  0  0  0  0  0  0  0  0
    9.8660   -0.5201   23.9541 C   0  0  0  0  0  0  0  0  0  0  0  0
   10.3012   -1.1439   25.2470 C   0  0  0  0  0  0  0  0  0  0  0  0
   11.6416   -1.8101   25.3445 C   0  0  0  0  0  0  0  0  0  0  0  0
   12.5468   -1.8526   24.1493 C   0  0  0  0  0  0  0  0  0  0  0  0
   12.1116   -1.2288   22.8564 C   0  0  0  0  0  0  0  0  0  0  0  0
   13.0168   -1.2713   21.6610 Cl  0  0  0  0  0  0  0  0  0  0  0  0
   10.7712   -0.5626   22.7589 C   0  0  0  0  0  0  0  0  0  0  0  0
    7.2156   -0.2084   21.1811 C   0  0  0  0  0  0  0  0  0  0  0  0
    6.3285    0.1833   20.0368 C   0  0  0  0  0  0  0  0  0  0  0  0
    6.4831   -0.4875   18.7041 C   0  0  0  0  0  0  0  0  0  0  0  0
    5.5960   -0.0957   17.5598 N   0  0  0  0  0  0  0  0  0  0  0  0
    4.5542    0.9669   17.7482 C   0  0  0  0  0  0  0  0  0  0  0  0
    4.3995    1.6377   19.0808 C   0  0  0  0  0  0  0  0  0  0  0  0
    3.3577    2.7004   19.2692 C   0  0  0  0  0  0  0  0  0  0  0  0
    3.2031    3.3712   20.6019 C   0  0  0  0  0  0  0  0  0  0  0  0
    4.0902    2.9794   21.7462 C   0  0  0  0  0  0  0  0  0  0  0  0
    5.1320    1.9168   21.5579 C   0  0  0  0  0  0  0  0  0  0  0  0
    5.2867    1.2459   20.2251 C   0  0  0  0  0  0  0  0  0  0  0  0
 16 17  1  0  0  0
 17  4  1  0  0  0
  4  5  2  0  0  0
  4  6  1  0  0  0
  6  7  1  0  0  0
  7  8  1  0  0  0
  8  9  1  0  0  0
  9 10  1  0  0  0
 10 11  2  0  0  0
 11 12  1  0  0  0
 12 13  2  0  0  0
 13  1  1  0  0  0
  1  2  1  0  0  0
  2  3  2  0  0  0
  2 27  1  0  0  0
 27 28  1  0  0  0
 28 29  2  0  0  0
 29 30  1  0  0  0
 30 31  2  0  0  0
 31 32  1  0  0  0
 32 33  2  0  0  0
 33 34  1  0  0  0
 34 35  2  0  0  0
 35 36  1  0  0  0
 36 37  2  0  0  0
  1 18  1  0  0  0
 18 19  1  0  0  0
 18 20  1  0  0  0
 20 21  2  0  0  0
 21 22  1  0  0  0
 22 23  2  0  0  0
 23 24  1  0  0  0
 24 25  1  0  0  0
 24 26  2  0  0  0
 13 14  1  0  0  0
 14 15  2  0  0  0
 15  6  1  0  0  0
 15 10  1  0  0  0
 37 28  1  0  0  0
 26 20  1  0  0  0
 37 32  1  0  0  0
M  END
> <minimizedAffinity>
-8.15142

> <CNNscore>
0.3913325965

> <CNNaffinity>
6.8551168442

> <CNN_VS>
2.6826307774

> <CNNaffinity_variance>
0.2072436512

$$$$
