


 37 41  0  0  0  0  0  0  0  0999 V2000
   -7.4755   -1.7638  -22.6214 N   0  0  0  0  0  0  0  0  0  0  0  0
   -6.7284   -1.0521  -21.5327 C   0  0  0  0  0  0  0  0  0  0  0  0
   -7.4619   -0.1472  -20.5876 O   0  0  0  0  0  0  0  0  0  0  0  0
  -10.6112    2.5023  -23.7250 C   0  0  0  0  0  0  0  0  0  0  0  0
   -9.1307    2.3092  -23.5814 O   0  0  0  0  0  0  0  0  0  0  0  0
  -11.5401    1.3378  -23.5485 N   0  0  0  0  0  0  0  0  0  0  0  0
  -13.0206    1.5309  -23.6921 C   0  0  0  0  0  0  0  0  0  0  0  0
  -13.9495    0.3664  -23.5156 C   0  0  0  0  0  0  0  0  0  0  0  0
  -13.3978   -0.9912  -23.1956 C   0  0  0  0  0  0  0  0  0  0  0  0
  -11.9173   -1.1843  -23.0521 C   0  0  0  0  0  0  0  0  0  0  0  0
  -11.3655   -2.5420  -22.7321 C   0  0  0  0  0  0  0  0  0  0  0  0
   -9.8850   -2.7351  -22.5886 C   0  0  0  0  0  0  0  0  0  0  0  0
   -8.9561   -1.5706  -22.7650 C   0  0  0  0  0  0  0  0  0  0  0  0
   -9.5078   -0.2130  -23.0850 C   0  0  0  0  0  0  0  0  0  0  0  0
  -10.9884   -0.0198  -23.2285 C   0  0  0  0  0  0  0  0  0  0  0  0
  -10.2537    5.0528  -24.0672 C   0  0  0  0  0  0  0  0  0  0  0  0
  -11.1629    3.8600  -24.0450 C   0  0  0  0  0  0  0  0  0  0  0  0
   -6.7421   -2.6687  -23.5666 N   0  0  0  0  0  0  0  0  0  0  0  0
   -5.9246   -2.0854  -24.6808 C   0  0  0  0  0  0  0  0  0  0  0  0
   -6.8261   -4.1567  -23.3975 C   0  0  0  0  0  0  0  0  0  0  0  0
   -7.5885   -4.9825  -24.3908 C   0  0  0  0  0  0  0  0  0  0  0  0
   -7.6726   -6.4706  -24.2217 C   0  0  0  0  0  0  0  0  0  0  0  0
   -6.9943   -7.1329  -23.0593 C   0  0  0  0  0  0  0  0  0  0  0  0
   -6.2319   -6.3071  -22.0660 C   0  0  0  0  0  0  0  0  0  0  0  0
   -5.5535   -6.9693  -20.9035 Cl  0  0  0  0  0  0  0  0  0  0  0  0
   -6.1478   -4.8190  -22.2351 C   0  0  0  0  0  0  0  0  0  0  0  0
   -5.2478   -1.2452  -21.3891 C   0  0  0  0  0  0  0  0  0  0  0  0
   -4.3798   -0.0988  -20.9625 C   0  0  0  0  0  0  0  0  0  0  0  0
   -4.3978    0.3654  -19.5362 C   0  0  0  0  0  0  0  0  0  0  0  0
   -3.5298    1.5119  -19.1095 N   0  0  0  0  0  0  0  0  0  0  0  0
   -2.6437    2.1942  -20.1091 C   0  0  0  0  0  0  0  0  0  0  0  0
   -2.6256    1.7301  -21.5353 C   0  0  0  0  0  0  0  0  0  0  0  0
   -1.7395    2.4125  -22.5350 C   0  0  0  0  0  0  0  0  0  0  0  0
   -1.7214    1.9483  -23.9612 C   0  0  0  0  0  0  0  0  0  0  0  0
   -2.5895    0.8018  -24.3879 C   0  0  0  0  0  0  0  0  0  0  0  0
   -3.4756    0.1195  -23.3883 C   0  0  0  0  0  0  0  0  0  0  0  0
   -3.4937    0.5836  -21.9620 C   0  0  0  0  0  0  0  0  0  0  0  0
 16 17  1  0  0  0
 17  4  1  0  0  0
  4  5  2  0  0  0
  4  6  1  0  0  0
  6  7  1  0  0  0
  7  8  1  0  0  0
  8  9  1  0  0  0
  9 10  1  0  0  0
 10 11  2  0  0  0
 11 12  1  0  0  0
 12 13  2  0  0  0
 13  1  1  0  0  0
  1  2  1  0  0  0
  2  3  2  0  0  0
  2 27  1  0  0  0
 27 28  1  0  0  0
 28 29  2  0  0  0
 29 30  1  0  0  0
 30 31  2  0  0  0
 31 32  1  0  0  0
 32 33  2  0  0  0
 33 34  1  0  0  0
 34 35  2  0  0  0
 35 36  1  0  0  0
 36 37  2  0  0  0
  1 18  1  0  0  0
 18 19  1  0  0  0
 18 20  1  0  0  0
 20 21  2  0  0  0
 21 22  1  0  0  0
 22 23  2  0  0  0
 23 24  1  0  0  0
 24 25  1  0  0  0
 24 26  2  0  0  0
 13 14  1  0  0  0
 14 15  2  0  0  0
 15  6  1  0  0  0
 15 10  1  0  0  0
 37 28  1  0  0  0
 26 20  1  0  0  0
 37 32  1  0  0  0
M  END
> <minimizedAffinity>
-8.45083

> <CNNscore>
0.5003629923

> <CNNaffinity>
6.7658500671

> <CNN_VS>
3.3853809834

> <CNNaffinity_variance>
0.1787852049

$$$$



 37 41  0  0  0  0  0  0  0  0999 V2000
   -7.3930   -1.6260  -22.4986 N   0  0  0  0  0  0  0  0  0  0  0  0
   -6.6678   -0.9361  -21.3814 C   0  0  0  0  0  0  0  0  0  0  0  0
   -7.4153   -0.0295  -20.4490 O   0  0  0  0  0  0  0  0  0  0  0  0
  -10.4228    2.6775  -23.7437 C   0  0  0  0  0  0  0  0  0  0  0  0
   -8.9501    2.4608  -23.5588 O   0  0  0  0  0  0  0  0  0  0  0  0
  -11.3765    1.5321  -23.5751 N   0  0  0  0  0  0  0  0  0  0  0  0
  -12.8492    1.7488  -23.7599 C   0  0  0  0  0  0  0  0  0  0  0  0
  -13.8028    0.6034  -23.5913 C   0  0  0  0  0  0  0  0  0  0  0  0
  -13.2838   -0.7589  -23.2379 C   0  0  0  0  0  0  0  0  0  0  0  0
  -11.8112   -0.9756  -23.0531 C   0  0  0  0  0  0  0  0  0  0  0  0
  -11.2921   -2.3379  -22.6997 C   0  0  0  0  0  0  0  0  0  0  0  0
   -9.8194   -2.5546  -22.5149 C   0  0  0  0  0  0  0  0  0  0  0  0
   -8.8657   -1.4092  -22.6834 C   0  0  0  0  0  0  0  0  0  0  0  0
   -9.3847   -0.0470  -23.0368 C   0  0  0  0  0  0  0  0  0  0  0  0
  -10.8575    0.1699  -23.2217 C   0  0  0  0  0  0  0  0  0  0  0  0
  -10.1396    5.2601  -23.7546 C   0  0  0  0  0  0  0  0  0  0  0  0
  -10.9418    4.0398  -24.0971 C   0  0  0  0  0  0  0  0  0  0  0  0
   -6.6455   -2.5326  -23.4309 N   0  0  0  0  0  0  0  0  0  0  0  0
   -5.7963   -1.9511  -24.5221 C   0  0  0  0  0  0  0  0  0  0  0  0
   -6.7473   -4.0207  -23.2721 C   0  0  0  0  0  0  0  0  0  0  0  0
   -6.0262   -4.7062  -22.1497 C   0  0  0  0  0  0  0  0  0  0  0  0
   -6.1280   -6.1943  -21.9909 C   0  0  0  0  0  0  0  0  0  0  0  0
   -6.9509   -6.9969  -22.9545 C   0  0  0  0  0  0  0  0  0  0  0  0
   -7.6720   -6.3114  -24.0769 C   0  0  0  0  0  0  0  0  0  0  0  0
   -8.4950   -7.1139  -25.0407 Cl  0  0  0  0  0  0  0  0  0  0  0  0
   -7.5702   -4.8233  -24.2358 C   0  0  0  0  0  0  0  0  0  0  0  0
   -5.1951   -1.1529  -21.1965 C   0  0  0  0  0  0  0  0  0  0  0  0
   -4.3045    0.0032  -20.8498 C   0  0  0  0  0  0  0  0  0  0  0  0
   -4.2614    0.5211  -19.4427 C   0  0  0  0  0  0  0  0  0  0  0  0
   -3.3708    1.6772  -19.0960 N   0  0  0  0  0  0  0  0  0  0  0  0
   -2.5234    2.3155  -20.1563 C   0  0  0  0  0  0  0  0  0  0  0  0
   -2.5665    1.7977  -21.5634 C   0  0  0  0  0  0  0  0  0  0  0  0
   -1.7190    2.4359  -22.6239 C   0  0  0  0  0  0  0  0  0  0  0  0
   -1.7622    1.9181  -24.0309 C   0  0  0  0  0  0  0  0  0  0  0  0
   -2.6528    0.7619  -24.3777 C   0  0  0  0  0  0  0  0  0  0  0  0
   -3.5002    0.1237  -23.3173 C   0  0  0  0  0  0  0  0  0  0  0  0
   -3.4571    0.6415  -21.9101 C   0  0  0  0  0  0  0  0  0  0  0  0
 16 17  1  0  0  0
 17  4  1  0  0  0
  4  5  2  0  0  0
  4  6  1  0  0  0
  6  7  1  0  0  0
  7  8  1  0  0  0
  8  9  1  0  0  0
  9 10  1  0  0  0
 10 11  2  0  0  0
 11 12  1  0  0  0
 12 13  2  0  0  0
 13  1  1  0  0  0
  1  2  1  0  0  0
  2  3  2  0  0  0
  2 27  1  0  0  0
 27 28  1  0  0  0
 28 29  2  0  0  0
 29 30  1  0  0  0
 30 31  2  0  0  0
 31 32  1  0  0  0
 32 33  2  0  0  0
 33 34  1  0  0  0
 34 35  2  0  0  0
 35 36  1  0  0  0
 36 37  2  0  0  0
  1 18  1  0  0  0
 18 19  1  0  0  0
 18 20  1  0  0  0
 20 21  2  0  0  0
 21 22  1  0  0  0
 22 23  2  0  0  0
 23 24  1  0  0  0
 24 25  1  0  0  0
 24 26  2  0  0  0
 13 14  1  0  0  0
 14 15  2  0  0  0
 15  6  1  0  0  0
 15 10  1  0  0  0
 37 28  1  0  0  0
 26 20  1  0  0  0
 37 32  1  0  0  0
M  END
> <minimizedAffinity>
-8.34448

> <CNNscore>
0.3780207038

> <CNNaffinity>
6.6329488754

> <CNN_VS>
2.5073919296

> <CNNaffinity_variance>
0.2075545788

$$$$



 37 41  0  0  0  0  0  0  0  0999 V2000
   -7.9645   -0.1978  -24.6767 N   0  0  0  0  0  0  0  0  0  0  0  0
   -6.8857    0.0492  -23.6642 C   0  0  0  0  0  0  0  0  0  0  0  0
   -6.1260    1.3426  -23.6781 O   0  0  0  0  0  0  0  0  0  0  0  0
  -11.1055    4.2050  -24.6927 C   0  0  0  0  0  0  0  0  0  0  0  0
  -10.7865    3.1587  -23.6663 O   0  0  0  0  0  0  0  0  0  0  0  0
  -10.4839    4.1325  -26.0559 N   0  0  0  0  0  0  0  0  0  0  0  0
  -10.8029    5.1788  -27.0822 C   0  0  0  0  0  0  0  0  0  0  0  0
  -10.1813    5.1063  -28.4455 C   0  0  0  0  0  0  0  0  0  0  0  0
   -9.2406    3.9875  -28.7823 C   0  0  0  0  0  0  0  0  0  0  0  0
   -8.9216    2.9412  -27.7559 C   0  0  0  0  0  0  0  0  0  0  0  0
   -7.9810    1.8223  -28.0927 C   0  0  0  0  0  0  0  0  0  0  0  0
   -7.6620    0.7761  -27.0663 C   0  0  0  0  0  0  0  0  0  0  0  0
   -8.2836    0.8486  -25.7031 C   0  0  0  0  0  0  0  0  0  0  0  0
   -9.2242    1.9674  -25.3663 C   0  0  0  0  0  0  0  0  0  0  0  0
   -9.5433    3.0137  -26.3927 C   0  0  0  0  0  0  0  0  0  0  0  0
  -12.9558    5.2072  -23.1689 C   0  0  0  0  0  0  0  0  0  0  0  0
  -12.0461    5.3238  -24.3558 C   0  0  0  0  0  0  0  0  0  0  0  0
   -8.7243   -1.4910  -24.6629 N   0  0  0  0  0  0  0  0  0  0  0  0
   -8.1340   -2.7144  -25.2992 C   0  0  0  0  0  0  0  0  0  0  0  0
  -10.0742   -1.5609  -24.0127 C   0  0  0  0  0  0  0  0  0  0  0  0
  -10.5323   -2.8368  -23.3707 C   0  0  0  0  0  0  0  0  0  0  0  0
  -11.8823   -2.9067  -22.7205 C   0  0  0  0  0  0  0  0  0  0  0  0
  -12.7741   -1.7007  -22.7124 C   0  0  0  0  0  0  0  0  0  0  0  0
  -12.3160   -0.4248  -23.3543 C   0  0  0  0  0  0  0  0  0  0  0  0
  -13.2079    0.7813  -23.3462 Cl  0  0  0  0  0  0  0  0  0  0  0  0
  -10.9661   -0.3549  -24.0045 C   0  0  0  0  0  0  0  0  0  0  0  0
   -6.5667   -0.9971  -22.6378 C   0  0  0  0  0  0  0  0  0  0  0  0
   -6.2798   -0.5953  -21.2214 C   0  0  0  0  0  0  0  0  0  0  0  0
   -7.2683   -0.9094  -20.1379 C   0  0  0  0  0  0  0  0  0  0  0  0
   -6.9815   -0.5077  -18.7214 N   0  0  0  0  0  0  0  0  0  0  0  0
   -5.7060    0.2081  -18.3885 C   0  0  0  0  0  0  0  0  0  0  0  0
   -4.7175    0.5222  -19.4720 C   0  0  0  0  0  0  0  0  0  0  0  0
   -3.4420    1.2380  -19.1391 C   0  0  0  0  0  0  0  0  0  0  0  0
   -2.4534    1.5521  -20.2227 C   0  0  0  0  0  0  0  0  0  0  0  0
   -2.7403    1.1504  -21.6391 C   0  0  0  0  0  0  0  0  0  0  0  0
   -4.0157    0.4346  -21.9720 C   0  0  0  0  0  0  0  0  0  0  0  0
   -5.0044    0.1205  -20.8885 C   0  0  0  0  0  0  0  0  0  0  0  0
 16 17  1  0  0  0
 17  4  1  0  0  0
  4  5  2  0  0  0
  4  6  1  0  0  0
  6  7  1  0  0  0
  7  8  1  0  0  0
  8  9  1  0  0  0
  9 10  1  0  0  0
 10 11  2  0  0  0
 11 12  1  0  0  0
 12 13  2  0  0  0
 13  1  1  0  0  0
  1  2  1  0  0  0
  2  3  2  0  0  0
  2 27  1  0  0  0
 27 28  1  0  0  0
 28 29  2  0  0  0
 29 30  1  0  0  0
 30 31  2  0  0  0
 31 32  1  0  0  0
 32 33  2  0  0  0
 33 34  1  0  0  0
 34 35  2  0  0  0
 35 36  1  0  0  0
 36 37  2  0  0  0
  1 18  1  0  0  0
 18 19  1  0  0  0
 18 20  1  0  0  0
 20 21  2  0  0  0
 21 22  1  0  0  0
 22 23  2  0  0  0
 23 24  1  0  0  0
 24 25  1  0  0  0
 24 26  2  0  0  0
 13 14  1  0  0  0
 14 15  2  0  0  0
 15  6  1  0  0  0
 15 10  1  0  0  0
 37 28  1  0  0  0
 26 20  1  0  0  0
 37 32  1  0  0  0
M  END
> <minimizedAffinity>
-7.73600

> <CNNscore>
0.2992759645

> <CNNaffinity>
6.4262428284

> <CNN_VS>
1.9232200384

> <CNNaffinity_variance>
0.1966424286

$$$$



 37 41  0  0  0  0  0  0  0  0999 V2000
   -7.5402   -0.3969  -23.1709 N   0  0  0  0  0  0  0  0  0  0  0  0
   -8.1901   -0.1025  -24.4904 C   0  0  0  0  0  0  0  0  0  0  0  0
   -8.3652   -1.1971  -25.5010 O   0  0  0  0  0  0  0  0  0  0  0  0
   -8.8622   -5.3079  -25.0107 C   0  0  0  0  0  0  0  0  0  0  0  0
   -9.3370   -3.9190  -25.3196 O   0  0  0  0  0  0  0  0  0  0  0  0
   -7.7884   -5.5228  -23.9857 N   0  0  0  0  0  0  0  0  0  0  0  0
   -7.3136   -6.9117  -23.6768 C   0  0  0  0  0  0  0  0  0  0  0  0
   -6.2398   -7.1266  -22.6517 C   0  0  0  0  0  0  0  0  0  0  0  0
   -5.6408   -5.9526  -21.9355 C   0  0  0  0  0  0  0  0  0  0  0  0
   -6.1157   -4.5637  -22.2444 C   0  0  0  0  0  0  0  0  0  0  0  0
   -5.5167   -3.3897  -21.5281 C   0  0  0  0  0  0  0  0  0  0  0  0
   -5.9916   -2.0008  -21.8370 C   0  0  0  0  0  0  0  0  0  0  0  0
   -7.0654   -1.7858  -22.8621 C   0  0  0  0  0  0  0  0  0  0  0  0
   -7.6643   -2.9598  -23.5783 C   0  0  0  0  0  0  0  0  0  0  0  0
   -7.1895   -4.3488  -23.2694 C   0  0  0  0  0  0  0  0  0  0  0  0
  -10.6881   -6.2996  -26.5703 C   0  0  0  0  0  0  0  0  0  0  0  0
   -9.4611   -6.4818  -25.7270 C   0  0  0  0  0  0  0  0  0  0  0  0
   -7.3651    0.6977  -22.1604 N   0  0  0  0  0  0  0  0  0  0  0  0
   -8.0077    2.0345  -22.3838 C   0  0  0  0  0  0  0  0  0  0  0  0
   -6.5474    0.4554  -20.9264 C   0  0  0  0  0  0  0  0  0  0  0  0
   -7.0972   -0.3906  -19.8165 C   0  0  0  0  0  0  0  0  0  0  0  0
   -6.2795   -0.6329  -18.5825 C   0  0  0  0  0  0  0  0  0  0  0  0
   -4.9120   -0.0292  -18.4585 C   0  0  0  0  0  0  0  0  0  0  0  0
   -4.3622    0.8169  -19.5684 C   0  0  0  0  0  0  0  0  0  0  0  0
   -2.9947    1.4207  -19.4443 Cl  0  0  0  0  0  0  0  0  0  0  0  0
   -5.1799    1.0591  -20.8023 C   0  0  0  0  0  0  0  0  0  0  0  0
   -8.6649    1.2864  -24.7993 C   0  0  0  0  0  0  0  0  0  0  0  0
  -10.0811    1.6790  -24.4989 C   0  0  0  0  0  0  0  0  0  0  0  0
  -10.5340    3.0898  -24.7327 C   0  0  0  0  0  0  0  0  0  0  0  0
  -11.9502    3.4824  -24.4323 N   0  0  0  0  0  0  0  0  0  0  0  0
  -12.9135    2.4643  -23.8982 C   0  0  0  0  0  0  0  0  0  0  0  0
  -12.4607    1.0536  -23.6644 C   0  0  0  0  0  0  0  0  0  0  0  0
  -13.4241    0.0354  -23.1303 C   0  0  0  0  0  0  0  0  0  0  0  0
  -12.9713   -1.3754  -22.8965 C   0  0  0  0  0  0  0  0  0  0  0  0
  -11.5551   -1.7680  -23.1969 C   0  0  0  0  0  0  0  0  0  0  0  0
  -10.5917   -0.7499  -23.7310 C   0  0  0  0  0  0  0  0  0  0  0  0
  -11.0445    0.6609  -23.9648 C   0  0  0  0  0  0  0  0  0  0  0  0
 16 17  1  0  0  0
 17  4  1  0  0  0
  4  5  2  0  0  0
  4  6  1  0  0  0
  6  7  1  0  0  0
  7  8  1  0  0  0
  8  9  1  0  0  0
  9 10  1  0  0  0
 10 11  2  0  0  0
 11 12  1  0  0  0
 12 13  2  0  0  0
 13  1  1  0  0  0
  1  2  1  0  0  0
  2  3  2  0  0  0
  2 27  1  0  0  0
 27 28  1  0  0  0
 28 29  2  0  0  0
 29 30  1  0  0  0
 30 31  2  0  0  0
 31 32  1  0  0  0
 32 33  2  0  0  0
 33 34  1  0  0  0
 34 35  2  0  0  0
 35 36  1  0  0  0
 36 37  2  0  0  0
  1 18  1  0  0  0
 18 19  1  0  0  0
 18 20  1  0  0  0
 20 21  2  0  0  0
 21 22  1  0  0  0
 22 23  2  0  0  0
 23 24  1  0  0  0
 24 25  1  0  0  0
 24 26  2  0  0  0
 13 14  1  0  0  0
 14 15  2  0  0  0
 15  6  1  0  0  0
 15 10  1  0  0  0
 37 28  1  0  0  0
 26 20  1  0  0  0
 37 32  1  0  0  0
M  END
> <minimizedAffinity>
-8.60411

> <CNNscore>
0.2457761467

> <CNNaffinity>
6.7915954590

> <CNN_VS>
1.6692121029

> <CNNaffinity_variance>
0.1367226094

$$$$



 37 41  0  0  0  0  0  0  0  0999 V2000
   -7.0202   -1.3364  -22.7921 N   0  0  0  0  0  0  0  0  0  0  0  0
   -8.4730   -1.0980  -22.5046 C   0  0  0  0  0  0  0  0  0  0  0  0
   -8.8761   -0.1459  -21.4178 O   0  0  0  0  0  0  0  0  0  0  0  0
   -2.1156    0.6276  -23.9487 C   0  0  0  0  0  0  0  0  0  0  0  0
   -3.1652   -0.0860  -24.7481 O   0  0  0  0  0  0  0  0  0  0  0  0
   -2.3509    0.9244  -22.4973 N   0  0  0  0  0  0  0  0  0  0  0  0
   -1.3013    1.6381  -21.6979 C   0  0  0  0  0  0  0  0  0  0  0  0
   -1.5367    1.9349  -20.2466 C   0  0  0  0  0  0  0  0  0  0  0  0
   -2.8217    1.5182  -19.5946 C   0  0  0  0  0  0  0  0  0  0  0  0
   -3.8713    0.8046  -20.3939 C   0  0  0  0  0  0  0  0  0  0  0  0
   -5.1563    0.3878  -19.7420 C   0  0  0  0  0  0  0  0  0  0  0  0
   -6.2059   -0.3259  -20.5413 C   0  0  0  0  0  0  0  0  0  0  0  0
   -5.9706   -0.6227  -21.9927 C   0  0  0  0  0  0  0  0  0  0  0  0
   -4.6856   -0.2060  -22.6447 C   0  0  0  0  0  0  0  0  0  0  0  0
   -3.6359    0.5077  -21.8453 C   0  0  0  0  0  0  0  0  0  0  0  0
    0.3017    0.0676  -24.7189 C   0  0  0  0  0  0  0  0  0  0  0  0
   -0.8306    1.0443  -24.6007 C   0  0  0  0  0  0  0  0  0  0  0  0
   -6.6171   -2.2884  -23.8789 N   0  0  0  0  0  0  0  0  0  0  0  0
   -6.1042   -1.7607  -25.1859 C   0  0  0  0  0  0  0  0  0  0  0  0
   -6.7269   -3.7681  -23.6586 C   0  0  0  0  0  0  0  0  0  0  0  0
   -7.4280   -4.6268  -24.6691 C   0  0  0  0  0  0  0  0  0  0  0  0
   -7.5378   -6.1064  -24.4488 C   0  0  0  0  0  0  0  0  0  0  0  0
   -6.9465   -6.7274  -23.2180 C   0  0  0  0  0  0  0  0  0  0  0  0
   -6.2455   -5.8687  -22.2076 C   0  0  0  0  0  0  0  0  0  0  0  0
   -5.6542   -6.4896  -20.9767 Cl  0  0  0  0  0  0  0  0  0  0  0  0
   -6.1357   -4.3890  -22.4278 C   0  0  0  0  0  0  0  0  0  0  0  0
   -9.5227   -1.8116  -23.3039 C   0  0  0  0  0  0  0  0  0  0  0  0
  -10.9649   -1.4238  -23.1637 C   0  0  0  0  0  0  0  0  0  0  0  0
  -11.9744   -2.4390  -22.7163 C   0  0  0  0  0  0  0  0  0  0  0  0
  -13.4166   -2.0512  -22.5761 N   0  0  0  0  0  0  0  0  0  0  0  0
  -13.8493   -0.6482  -22.8832 C   0  0  0  0  0  0  0  0  0  0  0  0
  -12.8398    0.3670  -23.3305 C   0  0  0  0  0  0  0  0  0  0  0  0
  -13.2724    1.7701  -23.6376 C   0  0  0  0  0  0  0  0  0  0  0  0
  -12.2629    2.7853  -24.0849 C   0  0  0  0  0  0  0  0  0  0  0  0
  -10.8207    2.3975  -24.2252 C   0  0  0  0  0  0  0  0  0  0  0  0
  -10.3880    0.9945  -23.9181 C   0  0  0  0  0  0  0  0  0  0  0  0
  -11.3976   -0.0208  -23.4708 C   0  0  0  0  0  0  0  0  0  0  0  0
 16 17  1  0  0  0
 17  4  1  0  0  0
  4  5  2  0  0  0
  4  6  1  0  0  0
  6  7  1  0  0  0
  7  8  1  0  0  0
  8  9  1  0  0  0
  9 10  1  0  0  0
 10 11  2  0  0  0
 11 12  1  0  0  0
 12 13  2  0  0  0
 13  1  1  0  0  0
  1  2  1  0  0  0
  2  3  2  0  0  0
  2 27  1  0  0  0
 27 28  1  0  0  0
 28 29  2  0  0  0
 29 30  1  0  0  0
 30 31  2  0  0  0
 31 32  1  0  0  0
 32 33  2  0  0  0
 33 34  1  0  0  0
 34 35  2  0  0  0
 35 36  1  0  0  0
 36 37  2  0  0  0
  1 18  1  0  0  0
 18 19  1  0  0  0
 18 20  1  0  0  0
 20 21  2  0  0  0
 21 22  1  0  0  0
 22 23  2  0  0  0
 23 24  1  0  0  0
 24 25  1  0  0  0
 24 26  2  0  0  0
 13 14  1  0  0  0
 14 15  2  0  0  0
 15  6  1  0  0  0
 15 10  1  0  0  0
 37 28  1  0  0  0
 26 20  1  0  0  0
 37 32  1  0  0  0
M  END
> <minimizedAffinity>
-8.23480

> <CNNscore>
0.2401493192

> <CNNaffinity>
6.3335494995

> <CNN_VS>
1.5209976435

> <CNNaffinity_variance>
0.2790161669

$$$$



 37 41  0  0  0  0  0  0  0  0999 V2000
   -8.7570   -1.2628  -23.8526 N   0  0  0  0  0  0  0  0  0  0  0  0
   -8.1027   -1.3571  -22.5061 C   0  0  0  0  0  0  0  0  0  0  0  0
   -7.6718   -2.6916  -21.9735 O   0  0  0  0  0  0  0  0  0  0  0  0
   -5.7565   -3.9919  -27.4302 C   0  0  0  0  0  0  0  0  0  0  0  0
   -5.5330   -2.7519  -26.6164 O   0  0  0  0  0  0  0  0  0  0  0  0
   -7.0547   -4.7356  -27.3227 N   0  0  0  0  0  0  0  0  0  0  0  0
   -7.2783   -5.9757  -28.1365 C   0  0  0  0  0  0  0  0  0  0  0  0
   -8.5765   -6.7194  -28.0290 C   0  0  0  0  0  0  0  0  0  0  0  0
   -9.6511   -6.2231  -27.1078 C   0  0  0  0  0  0  0  0  0  0  0  0
   -9.4276   -4.9830  -26.2940 C   0  0  0  0  0  0  0  0  0  0  0  0
  -10.5023   -4.4866  -25.3727 C   0  0  0  0  0  0  0  0  0  0  0  0
  -10.2787   -3.2466  -24.5590 C   0  0  0  0  0  0  0  0  0  0  0  0
   -8.9805   -2.5029  -24.6664 C   0  0  0  0  0  0  0  0  0  0  0  0
   -7.9059   -2.9992  -25.5877 C   0  0  0  0  0  0  0  0  0  0  0  0
   -8.1294   -4.2393  -26.4015 C   0  0  0  0  0  0  0  0  0  0  0  0
   -3.5311   -5.2794  -27.8039 C   0  0  0  0  0  0  0  0  0  0  0  0
   -4.6819   -4.4882  -28.3514 C   0  0  0  0  0  0  0  0  0  0  0  0
   -9.1879    0.0716  -24.3852 N   0  0  0  0  0  0  0  0  0  0  0  0
   -8.2846    0.8395  -25.3042 C   0  0  0  0  0  0  0  0  0  0  0  0
  -10.5219    0.6382  -23.9989 C   0  0  0  0  0  0  0  0  0  0  0  0
  -11.7098   -0.2673  -23.8608 C   0  0  0  0  0  0  0  0  0  0  0  0
  -13.0438    0.2992  -23.4745 C   0  0  0  0  0  0  0  0  0  0  0  0
  -13.1901    1.7713  -23.2262 C   0  0  0  0  0  0  0  0  0  0  0  0
  -12.0023    2.6768  -23.3644 C   0  0  0  0  0  0  0  0  0  0  0  0
  -12.1485    4.1489  -23.1161 Cl  0  0  0  0  0  0  0  0  0  0  0  0
  -10.6682    2.1102  -23.7507 C   0  0  0  0  0  0  0  0  0  0  0  0
   -7.8792   -0.1171  -21.6923 C   0  0  0  0  0  0  0  0  0  0  0  0
   -6.8954   -0.1303  -20.5600 C   0  0  0  0  0  0  0  0  0  0  0  0
   -7.1697   -0.9553  -19.3377 C   0  0  0  0  0  0  0  0  0  0  0  0
   -6.1860   -0.9685  -18.2054 N   0  0  0  0  0  0  0  0  0  0  0  0
   -4.9279   -0.1567  -18.2955 C   0  0  0  0  0  0  0  0  0  0  0  0
   -4.6536    0.6683  -19.5178 C   0  0  0  0  0  0  0  0  0  0  0  0
   -3.3954    1.4801  -19.6079 C   0  0  0  0  0  0  0  0  0  0  0  0
   -3.1211    2.3051  -20.8302 C   0  0  0  0  0  0  0  0  0  0  0  0
   -4.1048    2.3183  -21.9625 C   0  0  0  0  0  0  0  0  0  0  0  0
   -5.3629    1.5065  -21.8724 C   0  0  0  0  0  0  0  0  0  0  0  0
   -5.6373    0.6815  -20.6501 C   0  0  0  0  0  0  0  0  0  0  0  0
 16 17  1  0  0  0
 17  4  1  0  0  0
  4  5  2  0  0  0
  4  6  1  0  0  0
  6  7  1  0  0  0
  7  8  1  0  0  0
  8  9  1  0  0  0
  9 10  1  0  0  0
 10 11  2  0  0  0
 11 12  1  0  0  0
 12 13  2  0  0  0
 13  1  1  0  0  0
  1  2  1  0  0  0
  2  3  2  0  0  0
  2 27  1  0  0  0
 27 28  1  0  0  0
 28 29  2  0  0  0
 29 30  1  0  0  0
 30 31  2  0  0  0
 31 32  1  0  0  0
 32 33  2  0  0  0
 33 34  1  0  0  0
 34 35  2  0  0  0
 35 36  1  0  0  0
 36 37  2  0  0  0
  1 18  1  0  0  0
 18 19  1  0  0  0
 18 20  1  0  0  0
 20 21  2  0  0  0
 21 22  1  0  0  0
 22 23  2  0  0  0
 23 24  1  0  0  0
 24 25  1  0  0  0
 24 26  2  0  0  0
 13 14  1  0  0  0
 14 15  2  0  0  0
 15  6  1  0  0  0
 15 10  1  0  0  0
 37 28  1  0  0  0
 26 20  1  0  0  0
 37 32  1  0  0  0
M  END
> <minimizedAffinity>
-8.70439

> <CNNscore>
0.2354782224

> <CNNaffinity>
6.3168544769

> <CNN_VS>
1.4874817133

> <CNNaffinity_variance>
0.4019846320

$$$$



 37 41  0  0  0  0  0  0  0  0999 V2000
   -6.7405    1.0377  -23.4018 N   0  0  0  0  0  0  0  0  0  0  0  0
   -5.4538    1.8084  -23.4211 C   0  0  0  0  0  0  0  0  0  0  0  0
   -5.4744    3.2980  -23.5967 O   0  0  0  0  0  0  0  0  0  0  0  0
  -11.9196   -0.4973  -23.1350 C   0  0  0  0  0  0  0  0  0  0  0  0
  -10.6125   -1.2162  -22.9787 O   0  0  0  0  0  0  0  0  0  0  0  0
  -11.9362    0.9729  -23.4322 N   0  0  0  0  0  0  0  0  0  0  0  0
  -13.2434    1.6918  -23.5885 C   0  0  0  0  0  0  0  0  0  0  0  0
  -13.2600    3.1619  -23.8857 C   0  0  0  0  0  0  0  0  0  0  0  0
  -11.9694    3.9132  -24.0268 C   0  0  0  0  0  0  0  0  0  0  0  0
  -10.6622    3.1943  -23.8705 C   0  0  0  0  0  0  0  0  0  0  0  0
   -9.3716    3.9456  -24.0115 C   0  0  0  0  0  0  0  0  0  0  0  0
   -8.0644    3.2267  -23.8553 C   0  0  0  0  0  0  0  0  0  0  0  0
   -8.0478    1.7566  -23.5580 C   0  0  0  0  0  0  0  0  0  0  0  0
   -9.3384    1.0053  -23.4170 C   0  0  0  0  0  0  0  0  0  0  0  0
  -10.6456    1.7242  -23.5732 C   0  0  0  0  0  0  0  0  0  0  0  0
  -13.2638   -2.4986  -22.1666 C   0  0  0  0  0  0  0  0  0  0  0  0
  -13.2102   -1.2486  -22.9940 C   0  0  0  0  0  0  0  0  0  0  0  0
   -6.7200   -0.4518  -23.2262 N   0  0  0  0  0  0  0  0  0  0  0  0
   -7.0493   -1.3479  -24.3831 C   0  0  0  0  0  0  0  0  0  0  0  0
   -6.3701   -1.0452  -21.8938 C   0  0  0  0  0  0  0  0  0  0  0  0
   -5.8286   -2.4417  -21.8136 C   0  0  0  0  0  0  0  0  0  0  0  0
   -5.4787   -3.0352  -20.4811 C   0  0  0  0  0  0  0  0  0  0  0  0
   -5.6704   -2.2321  -19.2288 C   0  0  0  0  0  0  0  0  0  0  0  0
   -6.2120   -0.8356  -19.3090 C   0  0  0  0  0  0  0  0  0  0  0  0
   -6.4037   -0.0324  -18.0567 Cl  0  0  0  0  0  0  0  0  0  0  0  0
   -6.5618   -0.2422  -20.6415 C   0  0  0  0  0  0  0  0  0  0  0  0
   -4.1466    1.0896  -23.2649 C   0  0  0  0  0  0  0  0  0  0  0  0
   -3.2373    1.4268  -22.1205 C   0  0  0  0  0  0  0  0  0  0  0  0
   -3.8150    1.8688  -20.8087 C   0  0  0  0  0  0  0  0  0  0  0  0
   -2.9057    2.2060  -19.6644 N   0  0  0  0  0  0  0  0  0  0  0  0
   -1.4188    2.1013  -19.8318 C   0  0  0  0  0  0  0  0  0  0  0  0
   -0.8412    1.6593  -21.1437 C   0  0  0  0  0  0  0  0  0  0  0  0
    0.6458    1.5545  -21.3112 C   0  0  0  0  0  0  0  0  0  0  0  0
    1.2235    1.1125  -22.6230 C   0  0  0  0  0  0  0  0  0  0  0  0
    0.3142    0.7753  -23.7674 C   0  0  0  0  0  0  0  0  0  0  0  0
   -1.1727    0.8800  -23.5999 C   0  0  0  0  0  0  0  0  0  0  0  0
   -1.7504    1.3221  -22.2880 C   0  0  0  0  0  0  0  0  0  0  0  0
 16 17  1  0  0  0
 17  4  1  0  0  0
  4  5  2  0  0  0
  4  6  1  0  0  0
  6  7  1  0  0  0
  7  8  1  0  0  0
  8  9  1  0  0  0
  9 10  1  0  0  0
 10 11  2  0  0  0
 11 12  1  0  0  0
 12 13  2  0  0  0
 13  1  1  0  0  0
  1  2  1  0  0  0
  2  3  2  0  0  0
  2 27  1  0  0  0
 27 28  1  0  0  0
 28 29  2  0  0  0
 29 30  1  0  0  0
 30 31  2  0  0  0
 31 32  1  0  0  0
 32 33  2  0  0  0
 33 34  1  0  0  0
 34 35  2  0  0  0
 35 36  1  0  0  0
 36 37  2  0  0  0
  1 18  1  0  0  0
 18 19  1  0  0  0
 18 20  1  0  0  0
 20 21  2  0  0  0
 21 22  1  0  0  0
 22 23  2  0  0  0
 23 24  1  0  0  0
 24 25  1  0  0  0
 24 26  2  0  0  0
 13 14  1  0  0  0
 14 15  2  0  0  0
 15  6  1  0  0  0
 15 10  1  0  0  0
 37 28  1  0  0  0
 26 20  1  0  0  0
 37 32  1  0  0  0
M  END
> <minimizedAffinity>
-7.63788

> <CNNscore>
0.1783123314

> <CNNaffinity>
6.2203440666

> <CNN_VS>
1.1091639996

> <CNNaffinity_variance>
0.2607980072

$$$$



 37 41  0  0  0  0  0  0  0  0999 V2000
   -7.2705   -2.7479  -23.7705 N   0  0  0  0  0  0  0  0  0  0  0  0
   -6.7666   -2.4370  -22.3923 C   0  0  0  0  0  0  0  0  0  0  0  0
   -5.8002   -3.3664  -21.7197 O   0  0  0  0  0  0  0  0  0  0  0  0
   -3.0985   -3.8778  -27.0215 C   0  0  0  0  0  0  0  0  0  0  0  0
   -3.5611   -2.6376  -26.3159 O   0  0  0  0  0  0  0  0  0  0  0  0
   -3.8724   -5.1549  -26.8786 N   0  0  0  0  0  0  0  0  0  0  0  0
   -3.4098   -6.3951  -27.5842 C   0  0  0  0  0  0  0  0  0  0  0  0
   -4.1837   -7.6721  -27.4413 C   0  0  0  0  0  0  0  0  0  0  0  0
   -5.4201   -7.7089  -26.5928 C   0  0  0  0  0  0  0  0  0  0  0  0
   -5.8827   -6.4686  -25.8873 C   0  0  0  0  0  0  0  0  0  0  0  0
   -7.1191   -6.5054  -25.0388 C   0  0  0  0  0  0  0  0  0  0  0  0
   -7.5817   -5.2652  -24.3332 C   0  0  0  0  0  0  0  0  0  0  0  0
   -6.8078   -3.9882  -24.4761 C   0  0  0  0  0  0  0  0  0  0  0  0
   -5.5714   -3.9514  -25.3246 C   0  0  0  0  0  0  0  0  0  0  0  0
   -5.1088   -5.1916  -26.0302 C   0  0  0  0  0  0  0  0  0  0  0  0
   -1.4391   -2.5591  -28.5238 C   0  0  0  0  0  0  0  0  0  0  0  0
   -1.8621   -3.8411  -27.8699 C   0  0  0  0  0  0  0  0  0  0  0  0
   -8.2368   -1.8186  -24.4431 N   0  0  0  0  0  0  0  0  0  0  0  0
   -7.7913   -0.9907  -25.6118 C   0  0  0  0  0  0  0  0  0  0  0  0
   -9.6488   -1.7172  -23.9470 C   0  0  0  0  0  0  0  0  0  0  0  0
  -10.3763   -2.9497  -23.4980 C   0  0  0  0  0  0  0  0  0  0  0  0
  -11.7882   -2.8484  -23.0019 C   0  0  0  0  0  0  0  0  0  0  0  0
  -12.4727   -1.5145  -22.9549 C   0  0  0  0  0  0  0  0  0  0  0  0
  -11.7452   -0.2820  -23.4039 C   0  0  0  0  0  0  0  0  0  0  0  0
  -12.4297    1.0519  -23.3570 Cl  0  0  0  0  0  0  0  0  0  0  0  0
  -10.3333   -0.3834  -23.9000 C   0  0  0  0  0  0  0  0  0  0  0  0
   -7.2292   -1.1968  -21.6867 C   0  0  0  0  0  0  0  0  0  0  0  0
   -6.4622   -0.6741  -20.5084 C   0  0  0  0  0  0  0  0  0  0  0  0
   -6.9475   -0.9486  -19.1159 C   0  0  0  0  0  0  0  0  0  0  0  0
   -6.1805   -0.4258  -17.9376 N   0  0  0  0  0  0  0  0  0  0  0  0
   -4.9282    0.3715  -18.1517 C   0  0  0  0  0  0  0  0  0  0  0  0
   -4.4429    0.6461  -19.5442 C   0  0  0  0  0  0  0  0  0  0  0  0
   -3.1906    1.4435  -19.7584 C   0  0  0  0  0  0  0  0  0  0  0  0
   -2.7053    1.7181  -21.1509 C   0  0  0  0  0  0  0  0  0  0  0  0
   -3.4723    1.1953  -22.3292 C   0  0  0  0  0  0  0  0  0  0  0  0
   -4.7246    0.3979  -22.1151 C   0  0  0  0  0  0  0  0  0  0  0  0
   -5.2099    0.1233  -20.7225 C   0  0  0  0  0  0  0  0  0  0  0  0
 16 17  1  0  0  0
 17  4  1  0  0  0
  4  5  2  0  0  0
  4  6  1  0  0  0
  6  7  1  0  0  0
  7  8  1  0  0  0
  8  9  1  0  0  0
  9 10  1  0  0  0
 10 11  2  0  0  0
 11 12  1  0  0  0
 12 13  2  0  0  0
 13  1  1  0  0  0
  1  2  1  0  0  0
  2  3  2  0  0  0
  2 27  1  0  0  0
 27 28  1  0  0  0
 28 29  2  0  0  0
 29 30  1  0  0  0
 30 31  2  0  0  0
 31 32  1  0  0  0
 32 33  2  0  0  0
 33 34  1  0  0  0
 34 35  2  0  0  0
 35 36  1  0  0  0
 36 37  2  0  0  0
  1 18  1  0  0  0
 18 19  1  0  0  0
 18 20  1  0  0  0
 20 21  2  0  0  0
 21 22  1  0  0  0
 22 23  2  0  0  0
 23 24  1  0  0  0
 24 25  1  0  0  0
 24 26  2  0  0  0
 13 14  1  0  0  0
 14 15  2  0  0  0
 15  6  1  0  0  0
 15 10  1  0  0  0
 37 28  1  0  0  0
 26 20  1  0  0  0
 37 32  1  0  0  0
M  END
> <minimizedAffinity>
-7.95474

> <CNNscore>
0.1764158607

> <CNNaffinity>
6.2906370163

> <CNN_VS>
1.1097681522

> <CNNaffinity_variance>
0.1319921017

$$$$



 37 41  0  0  0  0  0  0  0  0999 V2000
   -9.3460   -0.7756  -23.8867 N   0  0  0  0  0  0  0  0  0  0  0  0
  -10.6424   -0.0573  -23.6554 C   0  0  0  0  0  0  0  0  0  0  0  0
  -11.9388   -0.7075  -24.0387 O   0  0  0  0  0  0  0  0  0  0  0  0
   -5.6927   -3.6410  -26.6603 C   0  0  0  0  0  0  0  0  0  0  0  0
   -5.6926   -2.2726  -26.0459 O   0  0  0  0  0  0  0  0  0  0  0  0
   -6.9105   -4.5104  -26.5551 N   0  0  0  0  0  0  0  0  0  0  0  0
   -6.9105   -5.8787  -27.1695 C   0  0  0  0  0  0  0  0  0  0  0  0
   -8.1283   -6.7481  -27.0642 C   0  0  0  0  0  0  0  0  0  0  0  0
   -9.3461   -6.2492  -26.3445 C   0  0  0  0  0  0  0  0  0  0  0  0
   -9.3461   -4.8808  -25.7301 C   0  0  0  0  0  0  0  0  0  0  0  0
  -10.5639   -4.3818  -25.0103 C   0  0  0  0  0  0  0  0  0  0  0  0
  -10.5638   -3.0134  -24.3959 C   0  0  0  0  0  0  0  0  0  0  0  0
   -9.3460   -2.1441  -24.5012 C   0  0  0  0  0  0  0  0  0  0  0  0
   -8.1282   -2.6430  -25.2209 C   0  0  0  0  0  0  0  0  0  0  0  0
   -8.1282   -4.0114  -25.8353 C   0  0  0  0  0  0  0  0  0  0  0  0
   -3.3858   -4.8354  -26.6183 C   0  0  0  0  0  0  0  0  0  0  0  0
   -4.4749   -4.1399  -27.3800 C   0  0  0  0  0  0  0  0  0  0  0  0
   -8.0497   -0.1256  -23.5035 N   0  0  0  0  0  0  0  0  0  0  0  0
   -7.3161    0.7270  -24.4958 C   0  0  0  0  0  0  0  0  0  0  0  0
   -7.4869   -0.3281  -22.1279 C   0  0  0  0  0  0  0  0  0  0  0  0
   -8.1895   -1.2281  -21.1551 C   0  0  0  0  0  0  0  0  0  0  0  0
   -7.6268   -1.4307  -19.7795 C   0  0  0  0  0  0  0  0  0  0  0  0
   -6.3614   -0.7333  -19.3767 C   0  0  0  0  0  0  0  0  0  0  0  0
   -5.6588    0.1667  -20.3494 C   0  0  0  0  0  0  0  0  0  0  0  0
   -4.3933    0.8642  -19.9466 Cl  0  0  0  0  0  0  0  0  0  0  0  0
   -6.2215    0.3693  -21.7250 C   0  0  0  0  0  0  0  0  0  0  0  0
  -10.6424    1.3110  -23.0410 C   0  0  0  0  0  0  0  0  0  0  0  0
  -11.5693    2.3680  -23.5641 C   0  0  0  0  0  0  0  0  0  0  0  0
  -13.0499    2.2322  -23.3657 C   0  0  0  0  0  0  0  0  0  0  0  0
  -13.9768    3.2892  -23.8888 N   0  0  0  0  0  0  0  0  0  0  0  0
  -13.4231    4.4820  -24.6102 C   0  0  0  0  0  0  0  0  0  0  0  0
  -11.9425    4.6178  -24.8086 C   0  0  0  0  0  0  0  0  0  0  0  0
  -11.3887    5.8107  -25.5301 C   0  0  0  0  0  0  0  0  0  0  0  0
   -9.9082    5.9465  -25.7285 C   0  0  0  0  0  0  0  0  0  0  0  0
   -8.9813    4.8895  -25.2054 C   0  0  0  0  0  0  0  0  0  0  0  0
   -9.5350    3.6967  -24.4839 C   0  0  0  0  0  0  0  0  0  0  0  0
  -11.0156    3.5608  -24.2855 C   0  0  0  0  0  0  0  0  0  0  0  0
 16 17  1  0  0  0
 17  4  1  0  0  0
  4  5  2  0  0  0
  4  6  1  0  0  0
  6  7  1  0  0  0
  7  8  1  0  0  0
  8  9  1  0  0  0
  9 10  1  0  0  0
 10 11  2  0  0  0
 11 12  1  0  0  0
 12 13  2  0  0  0
 13  1  1  0  0  0
  1  2  1  0  0  0
  2  3  2  0  0  0
  2 27  1  0  0  0
 27 28  1  0  0  0
 28 29  2  0  0  0
 29 30  1  0  0  0
 30 31  2  0  0  0
 31 32  1  0  0  0
 32 33  2  0  0  0
 33 34  1  0  0  0
 34 35  2  0  0  0
 35 36  1  0  0  0
 36 37  2  0  0  0
  1 18  1  0  0  0
 18 19  1  0  0  0
 18 20  1  0  0  0
 20 21  2  0  0  0
 21 22  1  0  0  0
 22 23  2  0  0  0
 23 24  1  0  0  0
 24 25  1  0  0  0
 24 26  2  0  0  0
 13 14  1  0  0  0
 14 15  2  0  0  0
 15  6  1  0  0  0
 15 10  1  0  0  0
 37 28  1  0  0  0
 26 20  1  0  0  0
 37 32  1  0  0  0
M  END
> <minimizedAffinity>
-7.82070

> <CNNscore>
0.1587234885

> <CNNaffinity>
6.2656321526

> <CNN_VS>
0.9945030212

> <CNNaffinity_variance>
0.3719232082

$$$$
