


 26 29  0  0  0  0  0  0  0  0999 V2000
    7.2848    0.2525   20.5550 N   0  0  0  0  0  0  0  0  0  0  0  0
    7.9959   -0.8324   21.3081 C   0  0  0  0  0  0  0  0  0  0  0  0
    8.9040    0.1904   21.9239 C   0  0  0  0  0  0  0  0  0  0  0  0
    8.1929    1.2754   21.1708 C   0  0  0  0  0  0  0  0  0  0  0  0
    9.4643   -1.0411   22.5715 C   0  0  0  0  0  0  0  0  0  0  0  0
    8.9780   -2.4450   22.3647 O   0  0  0  0  0  0  0  0  0  0  0  0
   10.5963   -0.6224   23.4622 N   0  0  0  0  0  0  0  0  0  0  0  0
   10.7356    0.8679   23.3650 C   0  0  0  0  0  0  0  0  0  0  0  0
   11.7438    1.7084   24.0911 O   0  0  0  0  0  0  0  0  0  0  0  0
    9.6897    1.3703   22.4144 N   0  0  0  0  0  0  0  0  0  0  0  0
    9.4684    2.8013   22.0229 C   0  0  0  0  0  0  0  0  0  0  0  0
   11.4408   -1.5340   24.3024 C   0  0  0  0  0  0  0  0  0  0  0  0
   12.9165   -1.6317   24.0522 C   0  0  0  0  0  0  0  0  0  0  0  0
   13.7609   -2.5433   24.8924 N   0  0  0  0  0  0  0  0  0  0  0  0
   13.1296   -3.3571   25.9828 C   0  0  0  0  0  0  0  0  0  0  0  0
   11.6538   -3.2594   26.2331 C   0  0  0  0  0  0  0  0  0  0  0  0
   11.0225   -4.0733   27.3235 C   0  0  0  0  0  0  0  0  0  0  0  0
    9.5468   -3.9756   27.5737 C   0  0  0  0  0  0  0  0  0  0  0  0
    8.7024   -3.0640   26.7335 C   0  0  0  0  0  0  0  0  0  0  0  0
    9.3337   -2.2501   25.6430 C   0  0  0  0  0  0  0  0  0  0  0  0
   10.8094   -2.3479   25.3929 C   0  0  0  0  0  0  0  0  0  0  0  0
    6.1398    0.2966   19.5869 S   0  0  0  0  0  0  0  0  0  0  0  0
    5.2050    0.6411   20.7084 O   0  0  0  0  0  0  0  0  0  0  0  0
    7.0745   -0.0480   18.4655 O   0  0  0  0  0  0  0  0  0  0  0  0
    4.1087    1.5496   18.5599 C   0  0  0  0  0  0  0  0  0  0  0  0
    4.9948    0.3406   18.6190 C   0  0  0  0  0  0  0  0  0  0  0  0
 25 26  1  0  0  0
 26 22  1  0  0  0
 22 23  2  0  0  0
 22 24  2  0  0  0
 22  1  1  0  0  0
  1  2  1  0  0  0
  2  3  1  0  0  0
  3  4  1  0  0  0
  3  5  1  0  0  0
  5  6  2  0  0  0
  5  7  1  0  0  0
  7 12  1  0  0  0
 12 13  2  0  0  0
 13 14  1  0  0  0
 14 15  2  0  0  0
 15 16  1  0  0  0
 16 17  2  0  0  0
 17 18  1  0  0  0
 18 19  2  0  0  0
 19 20  1  0  0  0
 20 21  2  0  0  0
  7  8  1  0  0  0
  8  9  2  0  0  0
  8 10  1  0  0  0
 10 11  1  0  0  0
  4  1  1  0  0  0
 21 12  1  0  0  0
 10  3  1  0  0  0
 21 16  1  0  0  0
M  END
> <minimizedAffinity>
-7.83854

> <CNNscore>
0.7696232796

> <CNNaffinity>
5.9703807831

> <CNN_VS>
4.5949440002

> <CNNaffinity_variance>
0.0396578833

$$$$



 26 29  0  0  0  0  0  0  0  0999 V2000
   10.3260   -1.6342   24.0030 N   0  0  0  0  0  0  0  0  0  0  0  0
    9.7113   -0.7322   22.9742 C   0  0  0  0  0  0  0  0  0  0  0  0
    8.5533   -1.6758   22.8388 C   0  0  0  0  0  0  0  0  0  0  0  0
    9.1679   -2.5779   23.8676 C   0  0  0  0  0  0  0  0  0  0  0  0
    8.1273   -0.6373   21.8439 C   0  0  0  0  0  0  0  0  0  0  0  0
    8.8801    0.6131   21.4975 O   0  0  0  0  0  0  0  0  0  0  0  0
    6.8163   -1.0685   21.2561 N   0  0  0  0  0  0  0  0  0  0  0  0
    6.4321   -2.3736   21.8878 C   0  0  0  0  0  0  0  0  0  0  0  0
    5.1921   -3.1646   21.5931 O   0  0  0  0  0  0  0  0  0  0  0  0
    7.5056   -2.7490   22.8660 N   0  0  0  0  0  0  0  0  0  0  0  0
    7.5275   -3.9812   23.7211 C   0  0  0  0  0  0  0  0  0  0  0  0
    6.0280   -0.3252   20.2188 C   0  0  0  0  0  0  0  0  0  0  0  0
    6.4120   -0.4234   18.7721 C   0  0  0  0  0  0  0  0  0  0  0  0
    5.6237    0.3200   17.7348 N   0  0  0  0  0  0  0  0  0  0  0  0
    4.4514    1.1615   18.1442 C   0  0  0  0  0  0  0  0  0  0  0  0
    4.0674    1.2597   19.5909 C   0  0  0  0  0  0  0  0  0  0  0  0
    2.8951    2.1012   20.0002 C   0  0  0  0  0  0  0  0  0  0  0  0
    2.5111    2.1993   21.4469 C   0  0  0  0  0  0  0  0  0  0  0  0
    3.2995    1.4560   22.4842 C   0  0  0  0  0  0  0  0  0  0  0  0
    4.4717    0.6145   22.0749 C   0  0  0  0  0  0  0  0  0  0  0  0
    4.8557    0.5163   20.6282 C   0  0  0  0  0  0  0  0  0  0  0  0
   11.5796   -1.6049   24.8263 S   0  0  0  0  0  0  0  0  0  0  0  0
   11.7992   -0.1719   24.4408 O   0  0  0  0  0  0  0  0  0  0  0  0
   11.3600   -3.0377   25.2118 O   0  0  0  0  0  0  0  0  0  0  0  0
   13.2755   -2.8047   26.3865 C   0  0  0  0  0  0  0  0  0  0  0  0
   12.8331   -1.5754   25.6495 C   0  0  0  0  0  0  0  0  0  0  0  0
 25 26  1  0  0  0
 26 22  1  0  0  0
 22 23  2  0  0  0
 22 24  2  0  0  0
 22  1  1  0  0  0
  1  2  1  0  0  0
  2  3  1  0  0  0
  3  4  1  0  0  0
  3  5  1  0  0  0
  5  6  2  0  0  0
  5  7  1  0  0  0
  7 12  1  0  0  0
 12 13  2  0  0  0
 13 14  1  0  0  0
 14 15  2  0  0  0
 15 16  1  0  0  0
 16 17  2  0  0  0
 17 18  1  0  0  0
 18 19  2  0  0  0
 19 20  1  0  0  0
 20 21  2  0  0  0
  7  8  1  0  0  0
  8  9  2  0  0  0
  8 10  1  0  0  0
 10 11  1  0  0  0
  4  1  1  0  0  0
 21 12  1  0  0  0
 10  3  1  0  0  0
 21 16  1  0  0  0
M  END
> <minimizedAffinity>
-7.83658

> <CNNscore>
0.7032281756

> <CNNaffinity>
5.7623252869

> <CNN_VS>
4.0522294044

> <CNNaffinity_variance>
0.0486265942

$$$$



 26 29  0  0  0  0  0  0  0  0999 V2000
    6.0605    0.6235   20.8250 N   0  0  0  0  0  0  0  0  0  0  0  0
    7.4480    0.1178   21.0874 C   0  0  0  0  0  0  0  0  0  0  0  0
    7.2424    0.3179   22.5597 C   0  0  0  0  0  0  0  0  0  0  0  0
    5.8549    0.8237   22.2973 C   0  0  0  0  0  0  0  0  0  0  0  0
    8.6451   -0.2128   22.5886 C   0  0  0  0  0  0  0  0  0  0  0  0
    9.4582   -0.6207   21.3959 O   0  0  0  0  0  0  0  0  0  0  0  0
    9.0919   -0.2642   24.0196 N   0  0  0  0  0  0  0  0  0  0  0  0
    7.9654    0.2349   24.8751 C   0  0  0  0  0  0  0  0  0  0  0  0
    7.9795    0.3535   26.3703 O   0  0  0  0  0  0  0  0  0  0  0  0
    6.8224    0.5947   23.9728 N   0  0  0  0  0  0  0  0  0  0  0  0
    5.4927    1.1361   24.4075 C   0  0  0  0  0  0  0  0  0  0  0  0
   10.4303   -0.7324   24.5091 C   0  0  0  0  0  0  0  0  0  0  0  0
   11.6707    0.0273   24.1427 C   0  0  0  0  0  0  0  0  0  0  0  0
   13.0090   -0.4409   24.6322 N   0  0  0  0  0  0  0  0  0  0  0  0
   13.1070   -1.6687   25.4881 C   0  0  0  0  0  0  0  0  0  0  0  0
   11.8666   -2.4285   25.8546 C   0  0  0  0  0  0  0  0  0  0  0  0
   11.9645   -3.6564   26.7105 C   0  0  0  0  0  0  0  0  0  0  0  0
   10.7242   -4.4160   27.0770 C   0  0  0  0  0  0  0  0  0  0  0  0
    9.3858   -3.9479   26.5874 C   0  0  0  0  0  0  0  0  0  0  0  0
    9.2879   -2.7200   25.7315 C   0  0  0  0  0  0  0  0  0  0  0  0
   10.5282   -1.9603   25.3651 C   0  0  0  0  0  0  0  0  0  0  0  0
    5.2246    0.8397   19.5984 S   0  0  0  0  0  0  0  0  0  0  0  0
    4.0103    1.0273   20.4590 O   0  0  0  0  0  0  0  0  0  0  0  0
    6.4387    0.6521   18.7377 O   0  0  0  0  0  0  0  0  0  0  0  0
    5.0376    1.1020   17.0203 C   0  0  0  0  0  0  0  0  0  0  0  0
    4.3885    1.0558   18.3719 C   0  0  0  0  0  0  0  0  0  0  0  0
 25 26  1  0  0  0
 26 22  1  0  0  0
 22 23  2  0  0  0
 22 24  2  0  0  0
 22  1  1  0  0  0
  1  2  1  0  0  0
  2  3  1  0  0  0
  3  4  1  0  0  0
  3  5  1  0  0  0
  5  6  2  0  0  0
  5  7  1  0  0  0
  7 12  1  0  0  0
 12 13  2  0  0  0
 13 14  1  0  0  0
 14 15  2  0  0  0
 15 16  1  0  0  0
 16 17  2  0  0  0
 17 18  1  0  0  0
 18 19  2  0  0  0
 19 20  1  0  0  0
 20 21  2  0  0  0
  7  8  1  0  0  0
  8  9  2  0  0  0
  8 10  1  0  0  0
 10 11  1  0  0  0
  4  1  1  0  0  0
 21 12  1  0  0  0
 10  3  1  0  0  0
 21 16  1  0  0  0
M  END
> <minimizedAffinity>
-7.37117

> <CNNscore>
0.6067289114

> <CNNaffinity>
5.5878334045

> <CNN_VS>
3.3903000355

> <CNNaffinity_variance>
0.1056247205

$$$$



 26 29  0  0  0  0  0  0  0  0999 V2000
    5.5363    0.1253   20.5484 N   0  0  0  0  0  0  0  0  0  0  0  0
    6.9486    0.3030   21.0212 C   0  0  0  0  0  0  0  0  0  0  0  0
    6.9431   -1.0956   21.5634 C   0  0  0  0  0  0  0  0  0  0  0  0
    5.5307   -1.2733   21.0905 C   0  0  0  0  0  0  0  0  0  0  0  0
    8.3389   -0.7013   21.9456 C   0  0  0  0  0  0  0  0  0  0  0  0
    8.9851    0.6255   21.6772 O   0  0  0  0  0  0  0  0  0  0  0  0
    8.9752   -1.8668   22.6433 N   0  0  0  0  0  0  0  0  0  0  0  0
    7.9726   -2.9813   22.6923 C   0  0  0  0  0  0  0  0  0  0  0  0
    8.1880   -4.3349   23.3018 O   0  0  0  0  0  0  0  0  0  0  0  0
    6.7166   -2.5047   22.0249 N   0  0  0  0  0  0  0  0  0  0  0  0
    5.4557   -3.2980   21.8497 C   0  0  0  0  0  0  0  0  0  0  0  0
   10.3694   -1.9100   23.1951 C   0  0  0  0  0  0  0  0  0  0  0  0
   11.5140   -1.3800   22.3835 C   0  0  0  0  0  0  0  0  0  0  0  0
   12.9082   -1.4232   22.9354 N   0  0  0  0  0  0  0  0  0  0  0  0
   13.1576   -1.9966   24.2988 C   0  0  0  0  0  0  0  0  0  0  0  0
   12.0129   -2.5267   25.1105 C   0  0  0  0  0  0  0  0  0  0  0  0
   12.2624   -3.1000   26.4739 C   0  0  0  0  0  0  0  0  0  0  0  0
   11.1178   -3.6300   27.2856 C   0  0  0  0  0  0  0  0  0  0  0  0
    9.7236   -3.5867   26.7337 C   0  0  0  0  0  0  0  0  0  0  0  0
    9.4741   -3.0134   25.3703 C   0  0  0  0  0  0  0  0  0  0  0  0
   10.6188   -2.4834   24.5587 C   0  0  0  0  0  0  0  0  0  0  0  0
    4.5414    0.9885   19.8307 S   0  0  0  0  0  0  0  0  0  0  0  0
    3.7941    1.1949   21.1149 O   0  0  0  0  0  0  0  0  0  0  0  0
    5.2886    0.7823   18.5465 O   0  0  0  0  0  0  0  0  0  0  0  0
    2.3931    2.4494   19.8632 C   0  0  0  0  0  0  0  0  0  0  0  0
    3.5465    1.8518   19.1131 C   0  0  0  0  0  0  0  0  0  0  0  0
 25 26  1  0  0  0
 26 22  1  0  0  0
 22 23  2  0  0  0
 22 24  2  0  0  0
 22  1  1  0  0  0
  1  2  1  0  0  0
  2  3  1  0  0  0
  3  4  1  0  0  0
  3  5  1  0  0  0
  5  6  2  0  0  0
  5  7  1  0  0  0
  7 12  1  0  0  0
 12 13  2  0  0  0
 13 14  1  0  0  0
 14 15  2  0  0  0
 15 16  1  0  0  0
 16 17  2  0  0  0
 17 18  1  0  0  0
 18 19  2  0  0  0
 19 20  1  0  0  0
 20 21  2  0  0  0
  7  8  1  0  0  0
  8  9  2  0  0  0
  8 10  1  0  0  0
 10 11  1  0  0  0
  4  1  1  0  0  0
 21 12  1  0  0  0
 10  3  1  0  0  0
 21 16  1  0  0  0
M  END
> <minimizedAffinity>
-7.54127

> <CNNscore>
0.5904633403

> <CNNaffinity>
5.6025934219

> <CNN_VS>
3.3081259727

> <CNNaffinity_variance>
0.0169117730

$$$$



 26 29  0  0  0  0  0  0  0  0999 V2000
   10.9263    3.5003   22.5858 N   0  0  0  0  0  0  0  0  0  0  0  0
   11.2549    2.2759   23.3875 C   0  0  0  0  0  0  0  0  0  0  0  0
   10.0086    1.6110   22.8830 C   0  0  0  0  0  0  0  0  0  0  0  0
    9.6799    2.8354   22.0813 C   0  0  0  0  0  0  0  0  0  0  0  0
   10.5282    0.5057   23.7538 C   0  0  0  0  0  0  0  0  0  0  0  0
   11.7879    0.5423   24.5672 O   0  0  0  0  0  0  0  0  0  0  0  0
    9.5669   -0.6426   23.6683 N   0  0  0  0  0  0  0  0  0  0  0  0
    8.4532   -0.2470   22.7447 C   0  0  0  0  0  0  0  0  0  0  0  0
    7.2736   -1.0952   22.3718 O   0  0  0  0  0  0  0  0  0  0  0  0
    8.7262    1.1459   22.2593 N   0  0  0  0  0  0  0  0  0  0  0  0
    7.8675    1.9349   21.3160 C   0  0  0  0  0  0  0  0  0  0  0  0
    9.6966   -1.9560   24.3812 C   0  0  0  0  0  0  0  0  0  0  0  0
    8.5409   -2.9118   24.4086 C   0  0  0  0  0  0  0  0  0  0  0  0
    8.6706   -4.2252   25.1215 N   0  0  0  0  0  0  0  0  0  0  0  0
    9.9559   -4.5827   25.8071 C   0  0  0  0  0  0  0  0  0  0  0  0
   11.1117   -3.6269   25.7797 C   0  0  0  0  0  0  0  0  0  0  0  0
   12.3970   -3.9844   26.4653 C   0  0  0  0  0  0  0  0  0  0  0  0
   13.5527   -3.0286   26.4380 C   0  0  0  0  0  0  0  0  0  0  0  0
   13.4230   -1.7152   25.7250 C   0  0  0  0  0  0  0  0  0  0  0  0
   12.1377   -1.3577   25.0395 C   0  0  0  0  0  0  0  0  0  0  0  0
   10.9820   -2.3135   25.0668 C   0  0  0  0  0  0  0  0  0  0  0  0
   11.5751    4.8363   22.3756 S   0  0  0  0  0  0  0  0  0  0  0  0
   12.8320    4.1544   21.9223 O   0  0  0  0  0  0  0  0  0  0  0  0
   10.3183    5.5181   22.8288 O   0  0  0  0  0  0  0  0  0  0  0  0
   11.3924    7.4205   22.1794 C   0  0  0  0  0  0  0  0  0  0  0  0
   12.2240    6.1722   22.1653 C   0  0  0  0  0  0  0  0  0  0  0  0
 25 26  1  0  0  0
 26 22  1  0  0  0
 22 23  2  0  0  0
 22 24  2  0  0  0
 22  1  1  0  0  0
  1  2  1  0  0  0
  2  3  1  0  0  0
  3  4  1  0  0  0
  3  5  1  0  0  0
  5  6  2  0  0  0
  5  7  1  0  0  0
  7 12  1  0  0  0
 12 13  2  0  0  0
 13 14  1  0  0  0
 14 15  2  0  0  0
 15 16  1  0  0  0
 16 17  2  0  0  0
 17 18  1  0  0  0
 18 19  2  0  0  0
 19 20  1  0  0  0
 20 21  2  0  0  0
  7  8  1  0  0  0
  8  9  2  0  0  0
  8 10  1  0  0  0
 10 11  1  0  0  0
  4  1  1  0  0  0
 21 12  1  0  0  0
 10  3  1  0  0  0
 21 16  1  0  0  0
M  END
> <minimizedAffinity>
-7.42440

> <CNNscore>
0.5524849892

> <CNNaffinity>
5.7253632545

> <CNN_VS>
3.1631772518

> <CNNaffinity_variance>
0.0878995508

$$$$



 26 29  0  0  0  0  0  0  0  0999 V2000
    6.2471   -0.1862   20.7031 N   0  0  0  0  0  0  0  0  0  0  0  0
    7.1255   -1.1776   21.4070 C   0  0  0  0  0  0  0  0  0  0  0  0
    6.9928   -0.3925   22.6782 C   0  0  0  0  0  0  0  0  0  0  0  0
    6.1145    0.5989   21.9744 C   0  0  0  0  0  0  0  0  0  0  0  0
    7.8811   -1.4946   23.1745 C   0  0  0  0  0  0  0  0  0  0  0  0
    8.3981   -2.6442   22.3614 O   0  0  0  0  0  0  0  0  0  0  0  0
    8.1618   -1.2453   24.6268 N   0  0  0  0  0  0  0  0  0  0  0  0
    7.4469    0.0109   25.0280 C   0  0  0  0  0  0  0  0  0  0  0  0
    7.4533    0.6312   26.3937 O   0  0  0  0  0  0  0  0  0  0  0  0
    6.7244    0.5379   23.8237 N   0  0  0  0  0  0  0  0  0  0  0  0
    5.8816    1.7777   23.7737 C   0  0  0  0  0  0  0  0  0  0  0  0
    9.0086   -2.1018   25.5209 C   0  0  0  0  0  0  0  0  0  0  0  0
    8.3606   -3.0742   26.4613 C   0  0  0  0  0  0  0  0  0  0  0  0
    9.2074   -3.9307   27.3554 N   0  0  0  0  0  0  0  0  0  0  0  0
   10.7022   -3.8147   27.3091 C   0  0  0  0  0  0  0  0  0  0  0  0
   11.3502   -2.8422   26.3686 C   0  0  0  0  0  0  0  0  0  0  0  0
   12.8450   -2.7263   26.3222 C   0  0  0  0  0  0  0  0  0  0  0  0
   13.4929   -1.7539   25.3818 C   0  0  0  0  0  0  0  0  0  0  0  0
   12.6461   -0.8974   24.4877 C   0  0  0  0  0  0  0  0  0  0  0  0
   11.1514   -1.0133   24.5340 C   0  0  0  0  0  0  0  0  0  0  0  0
   10.5034   -1.9858   25.4745 C   0  0  0  0  0  0  0  0  0  0  0  0
    5.7198   -0.0401   19.3064 S   0  0  0  0  0  0  0  0  0  0  0  0
    7.0798   -0.3587   18.7596 O   0  0  0  0  0  0  0  0  0  0  0  0
    4.3598    0.2786   19.8531 O   0  0  0  0  0  0  0  0  0  0  0  0
    4.8406    1.4641   17.3791 C   0  0  0  0  0  0  0  0  0  0  0  0
    5.1925    0.1060   17.9098 C   0  0  0  0  0  0  0  0  0  0  0  0
 25 26  1  0  0  0
 26 22  1  0  0  0
 22 23  2  0  0  0
 22 24  2  0  0  0
 22  1  1  0  0  0
  1  2  1  0  0  0
  2  3  1  0  0  0
  3  4  1  0  0  0
  3  5  1  0  0  0
  5  6  2  0  0  0
  5  7  1  0  0  0
  7 12  1  0  0  0
 12 13  2  0  0  0
 13 14  1  0  0  0
 14 15  2  0  0  0
 15 16  1  0  0  0
 16 17  2  0  0  0
 17 18  1  0  0  0
 18 19  2  0  0  0
 19 20  1  0  0  0
 20 21  2  0  0  0
  7  8  1  0  0  0
  8  9  2  0  0  0
  8 10  1  0  0  0
 10 11  1  0  0  0
  4  1  1  0  0  0
 21 12  1  0  0  0
 10  3  1  0  0  0
 21 16  1  0  0  0
M  END
> <minimizedAffinity>
-7.20377

> <CNNscore>
0.5500096083

> <CNNaffinity>
5.5090732574

> <CNN_VS>
3.0300431252

> <CNNaffinity_variance>
0.0267085824

$$$$



 26 29  0  0  0  0  0  0  0  0999 V2000
    5.2613   -0.3665   21.7037 N   0  0  0  0  0  0  0  0  0  0  0  0
    6.4221   -0.3184   22.6524 C   0  0  0  0  0  0  0  0  0  0  0  0
    6.4472   -1.8175   22.6978 C   0  0  0  0  0  0  0  0  0  0  0  0
    5.2864   -1.8657   21.7491 C   0  0  0  0  0  0  0  0  0  0  0  0
    7.5898   -1.5354   23.6278 C   0  0  0  0  0  0  0  0  0  0  0  0
    8.0944   -0.1778   24.0180 O   0  0  0  0  0  0  0  0  0  0  0  0
    8.1392   -2.8492   24.0990 N   0  0  0  0  0  0  0  0  0  0  0  0
    7.3361   -3.9433   23.4602 C   0  0  0  0  0  0  0  0  0  0  0  0
    7.5425   -5.4164   23.6535 O   0  0  0  0  0  0  0  0  0  0  0  0
    6.2904   -3.3057   22.5943 N   0  0  0  0  0  0  0  0  0  0  0  0
    5.2675   -4.0292   21.7696 C   0  0  0  0  0  0  0  0  0  0  0  0
    9.2897   -3.0361   25.0432 C   0  0  0  0  0  0  0  0  0  0  0  0
    9.0635   -3.6660   26.3856 C   0  0  0  0  0  0  0  0  0  0  0  0
   10.2140   -3.8529   27.3297 N   0  0  0  0  0  0  0  0  0  0  0  0
   11.5906   -3.4099   26.9315 C   0  0  0  0  0  0  0  0  0  0  0  0
   11.8169   -2.7800   25.5891 C   0  0  0  0  0  0  0  0  0  0  0  0
   13.1935   -2.3371   25.1909 C   0  0  0  0  0  0  0  0  0  0  0  0
   13.4196   -1.7072   23.8485 C   0  0  0  0  0  0  0  0  0  0  0  0
   12.2692   -1.5203   22.9043 C   0  0  0  0  0  0  0  0  0  0  0  0
   10.8925   -1.9632   23.3025 C   0  0  0  0  0  0  0  0  0  0  0  0
   10.6664   -2.5931   24.6449 C   0  0  0  0  0  0  0  0  0  0  0  0
    4.4227    0.6593   21.0007 S   0  0  0  0  0  0  0  0  0  0  0  0
    3.7433    0.9917   22.2962 O   0  0  0  0  0  0  0  0  0  0  0  0
    5.1019    0.3270   19.7052 O   0  0  0  0  0  0  0  0  0  0  0  0
    3.7291    1.8870   18.8185 C   0  0  0  0  0  0  0  0  0  0  0  0
    3.5839    1.6852   20.2977 C   0  0  0  0  0  0  0  0  0  0  0  0
 25 26  1  0  0  0
 26 22  1  0  0  0
 22 23  2  0  0  0
 22 24  2  0  0  0
 22  1  1  0  0  0
  1  2  1  0  0  0
  2  3  1  0  0  0
  3  4  1  0  0  0
  3  5  1  0  0  0
  5  6  2  0  0  0
  5  7  1  0  0  0
  7 12  1  0  0  0
 12 13  2  0  0  0
 13 14  1  0  0  0
 14 15  2  0  0  0
 15 16  1  0  0  0
 16 17  2  0  0  0
 17 18  1  0  0  0
 18 19  2  0  0  0
 19 20  1  0  0  0
 20 21  2  0  0  0
  7  8  1  0  0  0
  8  9  2  0  0  0
  8 10  1  0  0  0
 10 11  1  0  0  0
  4  1  1  0  0  0
 21 12  1  0  0  0
 10  3  1  0  0  0
 21 16  1  0  0  0
M  END
> <minimizedAffinity>
-6.88269

> <CNNscore>
0.4968829155

> <CNNaffinity>
5.5766830444

> <CNN_VS>
2.7709584236

> <CNNaffinity_variance>
0.0833393112

$$$$



 26 29  0  0  0  0  0  0  0  0999 V2000
    2.6285    1.9339   19.8799 N   0  0  0  0  0  0  0  0  0  0  0  0
    3.4780    1.3426   20.9656 C   0  0  0  0  0  0  0  0  0  0  0  0
    4.4801    0.9007   19.9407 C   0  0  0  0  0  0  0  0  0  0  0  0
    3.6307    1.4920   18.8550 C   0  0  0  0  0  0  0  0  0  0  0  0
    5.1624    0.3858   21.1733 C   0  0  0  0  0  0  0  0  0  0  0  0
    4.6550    0.5111   22.5794 O   0  0  0  0  0  0  0  0  0  0  0  0
    6.4410   -0.2764   20.7531 N   0  0  0  0  0  0  0  0  0  0  0  0
    6.5490   -0.1707   19.2607 C   0  0  0  0  0  0  0  0  0  0  0  0
    7.6717   -0.6997   18.4183 O   0  0  0  0  0  0  0  0  0  0  0  0
    5.3371    0.5568   18.7586 N   0  0  0  0  0  0  0  0  0  0  0  0
    5.0352    0.8830   17.3260 C   0  0  0  0  0  0  0  0  0  0  0  0
    7.4368   -0.9296   21.6651 C   0  0  0  0  0  0  0  0  0  0  0  0
    8.7602   -0.2727   21.9242 C   0  0  0  0  0  0  0  0  0  0  0  0
    9.7560   -0.9258   22.8362 N   0  0  0  0  0  0  0  0  0  0  0  0
    9.4284   -2.2359   23.4891 C   0  0  0  0  0  0  0  0  0  0  0  0
    8.1050   -2.8929   23.2300 C   0  0  0  0  0  0  0  0  0  0  0  0
    7.7775   -4.2030   23.8830 C   0  0  0  0  0  0  0  0  0  0  0  0
    6.4541   -4.8599   23.6239 C   0  0  0  0  0  0  0  0  0  0  0  0
    5.4583   -4.2067   22.7119 C   0  0  0  0  0  0  0  0  0  0  0  0
    5.7859   -2.8966   22.0590 C   0  0  0  0  0  0  0  0  0  0  0  0
    7.1092   -2.2397   22.3180 C   0  0  0  0  0  0  0  0  0  0  0  0
    1.3191    2.6645   19.8368 S   0  0  0  0  0  0  0  0  0  0  0  0
    1.9226    3.6921   18.9256 O   0  0  0  0  0  0  0  0  0  0  0  0
    0.7156    1.6371   20.7479 O   0  0  0  0  0  0  0  0  0  0  0  0
   -0.0122    4.8853   19.6226 C   0  0  0  0  0  0  0  0  0  0  0  0
    0.0099    3.3952   19.7936 C   0  0  0  0  0  0  0  0  0  0  0  0
 25 26  1  0  0  0
 26 22  1  0  0  0
 22 23  2  0  0  0
 22 24  2  0  0  0
 22  1  1  0  0  0
  1  2  1  0  0  0
  2  3  1  0  0  0
  3  4  1  0  0  0
  3  5  1  0  0  0
  5  6  2  0  0  0
  5  7  1  0  0  0
  7 12  1  0  0  0
 12 13  2  0  0  0
 13 14  1  0  0  0
 14 15  2  0  0  0
 15 16  1  0  0  0
 16 17  2  0  0  0
 17 18  1  0  0  0
 18 19  2  0  0  0
 19 20  1  0  0  0
 20 21  2  0  0  0
  7  8  1  0  0  0
  8  9  2  0  0  0
  8 10  1  0  0  0
 10 11  1  0  0  0
  4  1  1  0  0  0
 21 12  1  0  0  0
 10  3  1  0  0  0
 21 16  1  0  0  0
M  END
> <minimizedAffinity>
-7.28458

> <CNNscore>
0.4461500645

> <CNNaffinity>
5.2066550255

> <CNN_VS>
2.3229494095

> <CNNaffinity_variance>
0.0812074915

$$$$



 26 29  0  0  0  0  0  0  0  0999 V2000
    4.7952    0.5759   21.2806 N   0  0  0  0  0  0  0  0  0  0  0  0
    6.0531   -0.2124   21.4955 C   0  0  0  0  0  0  0  0  0  0  0  0
    5.7551   -0.2878   22.9637 C   0  0  0  0  0  0  0  0  0  0  0  0
    4.4971    0.5005   22.7489 C   0  0  0  0  0  0  0  0  0  0  0  0
    7.0441   -1.0546   22.9462 C   0  0  0  0  0  0  0  0  0  0  0  0
    7.8807   -1.3453   21.7356 O   0  0  0  0  0  0  0  0  0  0  0  0
    7.3497   -1.4796   24.3519 N   0  0  0  0  0  0  0  0  0  0  0  0
    6.2495   -0.9755   25.2381 C   0  0  0  0  0  0  0  0  0  0  0  0
    6.1519   -1.1733   26.7218 O   0  0  0  0  0  0  0  0  0  0  0  0
    5.2639   -0.2389   24.3801 N   0  0  0  0  0  0  0  0  0  0  0  0
    4.0078    0.4292   24.8553 C   0  0  0  0  0  0  0  0  0  0  0  0
    8.5455   -2.2700   24.7938 C   0  0  0  0  0  0  0  0  0  0  0  0
    8.3649   -3.6383   25.3813 C   0  0  0  0  0  0  0  0  0  0  0  0
    9.5607   -4.4287   25.8232 N   0  0  0  0  0  0  0  0  0  0  0  0
   10.9372   -3.8508   25.6775 C   0  0  0  0  0  0  0  0  0  0  0  0
   11.1179   -2.4825   25.0900 C   0  0  0  0  0  0  0  0  0  0  0  0
   12.4945   -1.9047   24.9444 C   0  0  0  0  0  0  0  0  0  0  0  0
   12.6751   -0.5364   24.3569 C   0  0  0  0  0  0  0  0  0  0  0  0
   11.4793    0.2540   23.9150 C   0  0  0  0  0  0  0  0  0  0  0  0
   10.1028   -0.3239   24.0606 C   0  0  0  0  0  0  0  0  0  0  0  0
    9.9221   -1.6921   24.6481 C   0  0  0  0  0  0  0  0  0  0  0  0
    4.1163    1.1867   20.0906 S   0  0  0  0  0  0  0  0  0  0  0  0
    5.3671    1.0031   19.2830 O   0  0  0  0  0  0  0  0  0  0  0  0
    2.8657    1.3703   20.8981 O   0  0  0  0  0  0  0  0  0  0  0  0
    2.2119    2.6416   19.0875 C   0  0  0  0  0  0  0  0  0  0  0  0
    3.4376    1.7974   18.9005 C   0  0  0  0  0  0  0  0  0  0  0  0
 25 26  1  0  0  0
 26 22  1  0  0  0
 22 23  2  0  0  0
 22 24  2  0  0  0
 22  1  1  0  0  0
  1  2  1  0  0  0
  2  3  1  0  0  0
  3  4  1  0  0  0
  3  5  1  0  0  0
  5  6  2  0  0  0
  5  7  1  0  0  0
  7 12  1  0  0  0
 12 13  2  0  0  0
 13 14  1  0  0  0
 14 15  2  0  0  0
 15 16  1  0  0  0
 16 17  2  0  0  0
 17 18  1  0  0  0
 18 19  2  0  0  0
 19 20  1  0  0  0
 20 21  2  0  0  0
  7  8  1  0  0  0
  8  9  2  0  0  0
  8 10  1  0  0  0
 10 11  1  0  0  0
  4  1  1  0  0  0
 21 12  1  0  0  0
 10  3  1  0  0  0
 21 16  1  0  0  0
M  END
> <minimizedAffinity>
-6.73101

> <CNNscore>
0.4079774022

> <CNNaffinity>
5.3359184265

> <CNN_VS>
2.1769342422

> <CNNaffinity_variance>
0.1329125464

$$$$
