


 33 34  0  0  0  0  0  0  0  0999 V2000
   10.2659   -2.3400   23.4952 C   0  0  0  0  0  0  0  0  0  0  0  0
   11.2550   -2.5922   24.5943 C   0  0  0  0  0  0  0  0  0  0  0  0
   10.9137   -3.5369   25.7083 C   0  0  0  0  0  0  0  0  0  0  0  0
   11.9029   -3.7891   26.8074 Cl  0  0  0  0  0  0  0  0  0  0  0  0
    9.5833   -4.2294   25.7232 C   0  0  0  0  0  0  0  0  0  0  0  0
    8.5941   -3.9773   24.6242 C   0  0  0  0  0  0  0  0  0  0  0  0
    8.9355   -3.0325   23.5102 C   0  0  0  0  0  0  0  0  0  0  0  0
    7.2636   -4.6698   24.6391 C   0  0  0  0  0  0  0  0  0  0  0  0
    7.1115   -6.0159   23.9950 C   0  0  0  0  0  0  0  0  0  0  0  0
    5.7809   -6.7084   24.0099 C   0  0  0  0  0  0  0  0  0  0  0  0
    4.6026   -6.0548   24.6689 C   0  0  0  0  0  0  0  0  0  0  0  0
    4.7548   -4.7086   25.3130 C   0  0  0  0  0  0  0  0  0  0  0  0
    6.0853   -4.0162   25.2981 C   0  0  0  0  0  0  0  0  0  0  0  0
    3.2721   -6.7473   24.6838 S   0  0  0  0  0  0  0  0  0  0  0  0
    1.9416   -7.4397   24.6987 N   0  0  0  0  0  0  0  0  0  0  0  0
    3.1067   -6.4610   23.2207 O   0  0  0  0  0  0  0  0  0  0  0  0
    3.4375   -7.0335   26.1469 O   0  0  0  0  0  0  0  0  0  0  0  0
    1.3919   -7.5066   23.8422 H   0  0  0  0  0  0  0  0  0  0  0  0
    1.5866   -7.8437   25.5654 H   0  0  0  0  0  0  0  0  0  0  0  0
   10.6072   -1.3953   22.3812 C   0  0  0  0  0  0  0  0  0  0  0  0
   12.0337   -0.9938   22.1489 C   0  0  0  0  0  0  0  0  0  0  0  0
    8.7511    0.3635   21.9215 C   0  0  0  0  0  0  0  0  0  0  0  0
    9.0652    1.0358   23.2251 O   0  0  0  0  0  0  0  0  0  0  0  0
    9.5221   -0.8520   21.4996 N   0  0  0  0  0  0  0  0  0  0  0  0
    9.3159   -1.2933   20.6440 H   0  0  0  0  0  0  0  0  0  0  0  0
    7.6660    0.9068   21.0398 C   0  0  0  0  0  0  0  0  0  0  0  0
    7.2803    0.1757   19.7881 O   0  0  0  0  0  0  0  0  0  0  0  0
    5.9177    0.3741   19.1932 S   0  0  0  0  0  0  0  0  0  0  0  0
    5.4992    1.1460   20.4094 O   0  0  0  0  0  0  0  0  0  0  0  0
    6.3362   -0.3977   17.9771 O   0  0  0  0  0  0  0  0  0  0  0  0
    3.8199    1.8610   18.8210 C   0  0  0  0  0  0  0  0  0  0  0  0
    4.5550    0.5726   18.5984 N   0  0  0  0  0  0  0  0  0  0  0  0
    4.1283   -0.1686   18.0426 H   0  0  0  0  0  0  0  0  0  0  0  0
 31 32  1  0  0  0
 32 28  1  0  0  0
 28 29  2  0  0  0
 28 30  2  0  0  0
 28 27  1  0  0  0
 27 26  1  0  0  0
 26 22  1  0  0  0
 22 23  2  0  0  0
 22 24  1  0  0  0
 24 20  1  0  0  0
 20 21  1  0  0  0
 20  1  1  0  0  0
  1  2  2  0  0  0
  2  3  1  0  0  0
  3  4  1  0  0  0
  3  5  2  0  0  0
  5  6  1  0  0  0
  6  8  1  0  0  0
  8  9  2  0  0  0
  9 10  1  0  0  0
 10 11  2  0  0  0
 11 14  1  0  0  0
 14 15  1  0  0  0
 14 16  2  0  0  0
 14 17  2  0  0  0
 11 12  1  0  0  0
 12 13  2  0  0  0
  6  7  2  0  0  0
  7  1  1  0  0  0
 13  8  1  0  0  0
 32 33  1  0  0  0
 24 25  1  0  0  0
 15 18  1  0  0  0
 15 19  1  0  0  0
M  END
> <minimizedAffinity>
-7.26915

> <CNNscore>
0.6503638029

> <CNNaffinity>
6.2579870224

> <CNN_VS>
4.0699682236

> <CNNaffinity_variance>
0.1536759883

$$$$



 33 34  0  0  0  0  0  0  0  0999 V2000
    9.3305   -1.6233   24.3410 C   0  0  0  0  0  0  0  0  0  0  0  0
   10.5822   -2.4180   24.5682 C   0  0  0  0  0  0  0  0  0  0  0  0
   11.9236   -1.7640   24.4173 C   0  0  0  0  0  0  0  0  0  0  0  0
   13.1753   -2.5587   24.6446 Cl  0  0  0  0  0  0  0  0  0  0  0  0
   12.0133   -0.3152   24.0392 C   0  0  0  0  0  0  0  0  0  0  0  0
   10.7616    0.4795   23.8119 C   0  0  0  0  0  0  0  0  0  0  0  0
    9.4202   -0.1746   23.9629 C   0  0  0  0  0  0  0  0  0  0  0  0
   10.8513    1.9283   23.4338 C   0  0  0  0  0  0  0  0  0  0  0  0
    9.6133    2.7748   23.4084 C   0  0  0  0  0  0  0  0  0  0  0  0
    9.7030    4.2237   23.0302 C   0  0  0  0  0  0  0  0  0  0  0  0
   11.0308    4.8259   22.6774 C   0  0  0  0  0  0  0  0  0  0  0  0
   12.2688    3.9793   22.7029 C   0  0  0  0  0  0  0  0  0  0  0  0
   12.1791    2.5305   23.0810 C   0  0  0  0  0  0  0  0  0  0  0  0
   11.1205    6.2746   22.2993 S   0  0  0  0  0  0  0  0  0  0  0  0
   11.2102    7.7234   21.9211 N   0  0  0  0  0  0  0  0  0  0  0  0
   12.5496    6.0787   21.8880 O   0  0  0  0  0  0  0  0  0  0  0  0
    9.6914    6.4705   22.7106 O   0  0  0  0  0  0  0  0  0  0  0  0
   12.0824    8.1006   21.5503 H   0  0  0  0  0  0  0  0  0  0  0  0
   10.3991    8.3313   22.0348 H   0  0  0  0  0  0  0  0  0  0  0  0
    7.9890   -2.2774   24.4919 C   0  0  0  0  0  0  0  0  0  0  0  0
    7.8294   -3.4605   25.4000 C   0  0  0  0  0  0  0  0  0  0  0  0
    6.8963   -1.5460   22.2512 C   0  0  0  0  0  0  0  0  0  0  0  0
    8.1673   -1.8729   21.5247 O   0  0  0  0  0  0  0  0  0  0  0  0
    6.8072   -1.7483   23.7348 N   0  0  0  0  0  0  0  0  0  0  0  0
    5.9730   -1.5337   24.2116 H   0  0  0  0  0  0  0  0  0  0  0  0
    5.7144   -1.0169   21.4940 C   0  0  0  0  0  0  0  0  0  0  0  0
    5.5258   -1.3778   20.0504 O   0  0  0  0  0  0  0  0  0  0  0  0
    5.8701   -0.3867   18.9784 S   0  0  0  0  0  0  0  0  0  0  0  0
    5.9422    0.7018   20.0079 O   0  0  0  0  0  0  0  0  0  0  0  0
    5.7979   -1.4752   17.9489 O   0  0  0  0  0  0  0  0  0  0  0  0
    5.1230    1.3364   17.1831 C   0  0  0  0  0  0  0  0  0  0  0  0
    6.2144    0.6045   17.9063 N   0  0  0  0  0  0  0  0  0  0  0  0
    7.1906    0.7807   17.6692 H   0  0  0  0  0  0  0  0  0  0  0  0
 31 32  1  0  0  0
 32 28  1  0  0  0
 28 29  2  0  0  0
 28 30  2  0  0  0
 28 27  1  0  0  0
 27 26  1  0  0  0
 26 22  1  0  0  0
 22 23  2  0  0  0
 22 24  1  0  0  0
 24 20  1  0  0  0
 20 21  1  0  0  0
 20  1  1  0  0  0
  1  2  2  0  0  0
  2  3  1  0  0  0
  3  4  1  0  0  0
  3  5  2  0  0  0
  5  6  1  0  0  0
  6  8  1  0  0  0
  8  9  2  0  0  0
  9 10  1  0  0  0
 10 11  2  0  0  0
 11 14  1  0  0  0
 14 15  1  0  0  0
 14 16  2  0  0  0
 14 17  2  0  0  0
 11 12  1  0  0  0
 12 13  2  0  0  0
  6  7  2  0  0  0
  7  1  1  0  0  0
 13  8  1  0  0  0
 32 33  1  0  0  0
 24 25  1  0  0  0
 15 18  1  0  0  0
 15 19  1  0  0  0
M  END
> <minimizedAffinity>
-6.91872

> <CNNscore>
0.5475708842

> <CNNaffinity>
6.1815271378

> <CNN_VS>
3.3848242760

> <CNNaffinity_variance>
0.2016677111

$$$$



 33 34  0  0  0  0  0  0  0  0999 V2000
   10.7367    0.4343   23.4837 C   0  0  0  0  0  0  0  0  0  0  0  0
   12.0122    0.0431   24.1692 C   0  0  0  0  0  0  0  0  0  0  0  0
   12.1648   -1.3359   24.7394 C   0  0  0  0  0  0  0  0  0  0  0  0
   13.4404   -1.7271   25.4249 Cl  0  0  0  0  0  0  0  0  0  0  0  0
   11.0419   -2.3237   24.6241 C   0  0  0  0  0  0  0  0  0  0  0  0
    9.7664   -1.9325   23.9385 C   0  0  0  0  0  0  0  0  0  0  0  0
    9.6138   -0.5535   23.3684 C   0  0  0  0  0  0  0  0  0  0  0  0
    8.6434   -2.9203   23.8232 C   0  0  0  0  0  0  0  0  0  0  0  0
    7.5315   -2.6808   22.8453 C   0  0  0  0  0  0  0  0  0  0  0  0
    6.4085   -3.6686   22.7300 C   0  0  0  0  0  0  0  0  0  0  0  0
    6.3975   -4.8958   23.5924 C   0  0  0  0  0  0  0  0  0  0  0  0
    7.5096   -5.1352   24.5703 C   0  0  0  0  0  0  0  0  0  0  0  0
    8.6325   -4.1475   24.6856 C   0  0  0  0  0  0  0  0  0  0  0  0
    5.2746   -5.8836   23.4771 S   0  0  0  0  0  0  0  0  0  0  0  0
    4.1517   -6.8713   23.3618 N   0  0  0  0  0  0  0  0  0  0  0  0
    5.7343   -6.5534   24.7380 O   0  0  0  0  0  0  0  0  0  0  0  0
    4.8149   -5.2138   22.2162 O   0  0  0  0  0  0  0  0  0  0  0  0
    4.0406   -7.6017   24.0651 H   0  0  0  0  0  0  0  0  0  0  0  0
    3.4992   -6.8127   22.5800 H   0  0  0  0  0  0  0  0  0  0  0  0
   10.5841    1.8133   22.9136 C   0  0  0  0  0  0  0  0  0  0  0  0
   11.5949    2.8739   23.2351 C   0  0  0  0  0  0  0  0  0  0  0  0
    8.1039    2.5290   22.6203 C   0  0  0  0  0  0  0  0  0  0  0  0
    7.9504    2.6079   24.1103 O   0  0  0  0  0  0  0  0  0  0  0  0
    9.4207    2.1317   22.0219 N   0  0  0  0  0  0  0  0  0  0  0  0
    9.5214    2.0799   21.0440 H   0  0  0  0  0  0  0  0  0  0  0  0
    6.9404    2.8474   21.7285 C   0  0  0  0  0  0  0  0  0  0  0  0
    5.9735    1.7675   21.3429 O   0  0  0  0  0  0  0  0  0  0  0  0
    6.0460    1.1479   19.9788 S   0  0  0  0  0  0  0  0  0  0  0  0
    4.6409    1.5938   19.7016 O   0  0  0  0  0  0  0  0  0  0  0  0
    7.4511    0.7020   20.2560 O   0  0  0  0  0  0  0  0  0  0  0  0
    5.0109    0.7541   17.6286 C   0  0  0  0  0  0  0  0  0  0  0  0
    6.1185    0.5283   18.6146 N   0  0  0  0  0  0  0  0  0  0  0  0
    6.9209   -0.0466   18.3575 H   0  0  0  0  0  0  0  0  0  0  0  0
 31 32  1  0  0  0
 32 28  1  0  0  0
 28 29  2  0  0  0
 28 30  2  0  0  0
 28 27  1  0  0  0
 27 26  1  0  0  0
 26 22  1  0  0  0
 22 23  2  0  0  0
 22 24  1  0  0  0
 24 20  1  0  0  0
 20 21  1  0  0  0
 20  1  1  0  0  0
  1  2  2  0  0  0
  2  3  1  0  0  0
  3  4  1  0  0  0
  3  5  2  0  0  0
  5  6  1  0  0  0
  6  8  1  0  0  0
  8  9  2  0  0  0
  9 10  1  0  0  0
 10 11  2  0  0  0
 11 14  1  0  0  0
 14 15  1  0  0  0
 14 16  2  0  0  0
 14 17  2  0  0  0
 11 12  1  0  0  0
 12 13  2  0  0  0
  6  7  2  0  0  0
  7  1  1  0  0  0
 13  8  1  0  0  0
 32 33  1  0  0  0
 24 25  1  0  0  0
 15 18  1  0  0  0
 15 19  1  0  0  0
M  END
> <minimizedAffinity>
-7.28347

> <CNNscore>
0.5236747265

> <CNNaffinity>
6.2485685349

> <CNN_VS>
3.2722175121

> <CNNaffinity_variance>
0.1095161662

$$$$



 33 34  0  0  0  0  0  0  0  0999 V2000
    8.5868   -3.0289   24.1347 C   0  0  0  0  0  0  0  0  0  0  0  0
    9.5032   -3.7885   25.0476 C   0  0  0  0  0  0  0  0  0  0  0  0
   10.7708   -3.1528   25.5364 C   0  0  0  0  0  0  0  0  0  0  0  0
   11.6872   -3.9125   26.4493 Cl  0  0  0  0  0  0  0  0  0  0  0  0
   11.1222   -1.7576   25.1124 C   0  0  0  0  0  0  0  0  0  0  0  0
   10.2058   -0.9980   24.1996 C   0  0  0  0  0  0  0  0  0  0  0  0
    8.9381   -1.6336   23.7108 C   0  0  0  0  0  0  0  0  0  0  0  0
   10.5571    0.3974   23.7755 C   0  0  0  0  0  0  0  0  0  0  0  0
   11.9834    0.7542   23.4784 C   0  0  0  0  0  0  0  0  0  0  0  0
   12.3347    2.1496   23.0544 C   0  0  0  0  0  0  0  0  0  0  0  0
   11.2597    3.1879   22.9275 C   0  0  0  0  0  0  0  0  0  0  0  0
    9.8333    2.8310   23.2246 C   0  0  0  0  0  0  0  0  0  0  0  0
    9.4821    1.4357   23.6486 C   0  0  0  0  0  0  0  0  0  0  0  0
   11.6109    4.5832   22.5035 S   0  0  0  0  0  0  0  0  0  0  0  0
   11.9621    5.9784   22.0794 N   0  0  0  0  0  0  0  0  0  0  0  0
   12.9969    4.1282   22.1544 O   0  0  0  0  0  0  0  0  0  0  0  0
   10.2249    5.0382   22.8525 O   0  0  0  0  0  0  0  0  0  0  0  0
   12.8978    6.1849   21.7297 H   0  0  0  0  0  0  0  0  0  0  0  0
   11.2653    6.7208   22.1409 H   0  0  0  0  0  0  0  0  0  0  0  0
    7.3192   -3.6645   23.6459 C   0  0  0  0  0  0  0  0  0  0  0  0
    6.6186   -4.6870   24.4907 C   0  0  0  0  0  0  0  0  0  0  0  0
    5.8423   -2.0903   22.2000 C   0  0  0  0  0  0  0  0  0  0  0  0
    5.4998   -1.2898   23.4214 O   0  0  0  0  0  0  0  0  0  0  0  0
    6.7520   -3.2777   22.3123 N   0  0  0  0  0  0  0  0  0  0  0  0
    6.9768   -3.8031   21.5106 H   0  0  0  0  0  0  0  0  0  0  0  0
    5.2751   -1.7035   20.8663 C   0  0  0  0  0  0  0  0  0  0  0  0
    5.8797   -0.5678   20.0951 O   0  0  0  0  0  0  0  0  0  0  0  0
    5.0210    0.2661   19.1911 S   0  0  0  0  0  0  0  0  0  0  0  0
    4.1683    0.6568   20.3616 O   0  0  0  0  0  0  0  0  0  0  0  0
    5.8737   -0.1247   18.0206 O   0  0  0  0  0  0  0  0  0  0  0  0
    3.3674    2.2408   18.8501 C   0  0  0  0  0  0  0  0  0  0  0  0
    4.1622    1.1000   18.2872 N   0  0  0  0  0  0  0  0  0  0  0  0
    4.1187    0.8914   17.2897 H   0  0  0  0  0  0  0  0  0  0  0  0
 31 32  1  0  0  0
 32 28  1  0  0  0
 28 29  2  0  0  0
 28 30  2  0  0  0
 28 27  1  0  0  0
 27 26  1  0  0  0
 26 22  1  0  0  0
 22 23  2  0  0  0
 22 24  1  0  0  0
 24 20  1  0  0  0
 20 21  1  0  0  0
 20  1  1  0  0  0
  1  2  2  0  0  0
  2  3  1  0  0  0
  3  4  1  0  0  0
  3  5  2  0  0  0
  5  6  1  0  0  0
  6  8  1  0  0  0
  8  9  2  0  0  0
  9 10  1  0  0  0
 10 11  2  0  0  0
 11 14  1  0  0  0
 14 15  1  0  0  0
 14 16  2  0  0  0
 14 17  2  0  0  0
 11 12  1  0  0  0
 12 13  2  0  0  0
  6  7  2  0  0  0
  7  1  1  0  0  0
 13  8  1  0  0  0
 32 33  1  0  0  0
 24 25  1  0  0  0
 15 18  1  0  0  0
 15 19  1  0  0  0
M  END
> <minimizedAffinity>
-7.43204

> <CNNscore>
0.5185956955

> <CNNaffinity>
6.1400251389

> <CNN_VS>
3.1841905117

> <CNNaffinity_variance>
0.0836362466

$$$$



 33 34  0  0  0  0  0  0  0  0999 V2000
   10.6416    0.4912   23.3821 C   0  0  0  0  0  0  0  0  0  0  0  0
   11.9227    0.1354   24.0764 C   0  0  0  0  0  0  0  0  0  0  0  0
   12.0986   -1.2297   24.6726 C   0  0  0  0  0  0  0  0  0  0  0  0
   13.3798   -1.5854   25.3669 Cl  0  0  0  0  0  0  0  0  0  0  0  0
   10.9934   -2.2391   24.5745 C   0  0  0  0  0  0  0  0  0  0  0  0
    9.7123   -1.8833   23.8802 C   0  0  0  0  0  0  0  0  0  0  0  0
    9.5364   -0.5182   23.2839 C   0  0  0  0  0  0  0  0  0  0  0  0
    8.6070   -2.8927   23.7820 C   0  0  0  0  0  0  0  0  0  0  0  0
    8.6308   -4.1175   24.6476 C   0  0  0  0  0  0  0  0  0  0  0  0
    7.5255   -5.1269   24.5495 C   0  0  0  0  0  0  0  0  0  0  0  0
    6.3965   -4.9114   23.5857 C   0  0  0  0  0  0  0  0  0  0  0  0
    6.3728   -3.6866   22.7200 C   0  0  0  0  0  0  0  0  0  0  0  0
    7.4780   -2.6773   22.8182 C   0  0  0  0  0  0  0  0  0  0  0  0
    5.2913   -5.9207   23.4875 S   0  0  0  0  0  0  0  0  0  0  0  0
    4.1860   -6.9301   23.3893 N   0  0  0  0  0  0  0  0  0  0  0  0
    4.8128   -5.2737   22.2217 O   0  0  0  0  0  0  0  0  0  0  0  0
    5.7697   -6.5678   24.7533 O   0  0  0  0  0  0  0  0  0  0  0  0
    3.5285   -6.8922   22.6105 H   0  0  0  0  0  0  0  0  0  0  0  0
    4.0920   -7.6543   24.1014 H   0  0  0  0  0  0  0  0  0  0  0  0
   10.4656    1.8563   22.7859 C   0  0  0  0  0  0  0  0  0  0  0  0
   11.4168    2.9595   23.1441 C   0  0  0  0  0  0  0  0  0  0  0  0
    7.9658    2.4187   22.3562 C   0  0  0  0  0  0  0  0  0  0  0  0
    7.7202    2.4571   23.8354 O   0  0  0  0  0  0  0  0  0  0  0  0
    9.3386    2.1183   21.8314 N   0  0  0  0  0  0  0  0  0  0  0  0
    9.4998    2.0931   20.8605 H   0  0  0  0  0  0  0  0  0  0  0  0
    6.8387    2.6807   21.4016 C   0  0  0  0  0  0  0  0  0  0  0  0
    5.6202    1.8063   21.4219 O   0  0  0  0  0  0  0  0  0  0  0  0
    5.2416    1.0191   20.2025 S   0  0  0  0  0  0  0  0  0  0  0  0
    3.7970    1.1017   20.5977 O   0  0  0  0  0  0  0  0  0  0  0  0
    6.6862    0.9366   19.8072 O   0  0  0  0  0  0  0  0  0  0  0  0
    4.9207    0.8734   17.6284 C   0  0  0  0  0  0  0  0  0  0  0  0
    4.8629    0.2319   18.9830 N   0  0  0  0  0  0  0  0  0  0  0  0
    4.5661   -0.7396   19.0750 H   0  0  0  0  0  0  0  0  0  0  0  0
 31 32  1  0  0  0
 32 28  1  0  0  0
 28 29  2  0  0  0
 28 30  2  0  0  0
 28 27  1  0  0  0
 27 26  1  0  0  0
 26 22  1  0  0  0
 22 23  2  0  0  0
 22 24  1  0  0  0
 24 20  1  0  0  0
 20 21  1  0  0  0
 20  1  1  0  0  0
  1  2  2  0  0  0
  2  3  1  0  0  0
  3  4  1  0  0  0
  3  5  2  0  0  0
  5  6  1  0  0  0
  6  8  1  0  0  0
  8  9  2  0  0  0
  9 10  1  0  0  0
 10 11  2  0  0  0
 11 14  1  0  0  0
 14 15  1  0  0  0
 14 16  2  0  0  0
 14 17  2  0  0  0
 11 12  1  0  0  0
 12 13  2  0  0  0
  6  7  2  0  0  0
  7  1  1  0  0  0
 13  8  1  0  0  0
 32 33  1  0  0  0
 24 25  1  0  0  0
 15 18  1  0  0  0
 15 19  1  0  0  0
M  END
> <minimizedAffinity>
-7.34146

> <CNNscore>
0.4593400657

> <CNNaffinity>
6.1425228119

> <CNN_VS>
2.8215067387

> <CNNaffinity_variance>
0.1051805019

$$$$



 33 34  0  0  0  0  0  0  0  0999 V2000
    8.5424    3.1528   22.9210 C   0  0  0  0  0  0  0  0  0  0  0  0
    9.7260    3.9853   22.5264 C   0  0  0  0  0  0  0  0  0  0  0  0
   11.1157    3.4654   22.7468 C   0  0  0  0  0  0  0  0  0  0  0  0
   12.2994    4.2980   22.3522 Cl  0  0  0  0  0  0  0  0  0  0  0  0
   11.3216    2.1129   23.3618 C   0  0  0  0  0  0  0  0  0  0  0  0
   10.1380    1.2803   23.7564 C   0  0  0  0  0  0  0  0  0  0  0  0
    8.7483    1.8003   23.5360 C   0  0  0  0  0  0  0  0  0  0  0  0
   10.3439   -0.0723   24.3715 C   0  0  0  0  0  0  0  0  0  0  0  0
    9.1649   -0.8639   24.8545 C   0  0  0  0  0  0  0  0  0  0  0  0
    9.3709   -2.2165   25.4695 C   0  0  0  0  0  0  0  0  0  0  0  0
   10.7558   -2.7774   25.6015 C   0  0  0  0  0  0  0  0  0  0  0  0
   11.9348   -1.9857   25.1184 C   0  0  0  0  0  0  0  0  0  0  0  0
   11.7288   -0.6332   24.5034 C   0  0  0  0  0  0  0  0  0  0  0  0
   10.9617   -4.1299   26.2165 S   0  0  0  0  0  0  0  0  0  0  0  0
   11.1677   -5.4824   26.8315 N   0  0  0  0  0  0  0  0  0  0  0  0
   12.2057   -3.6334   26.8917 O   0  0  0  0  0  0  0  0  0  0  0  0
    9.7177   -4.6263   25.5412 O   0  0  0  0  0  0  0  0  0  0  0  0
   11.9703   -5.6499   27.4382 H   0  0  0  0  0  0  0  0  0  0  0  0
   10.5051   -6.2346   26.6429 H   0  0  0  0  0  0  0  0  0  0  0  0
    7.1528    3.6727   22.7006 C   0  0  0  0  0  0  0  0  0  0  0  0
    6.9104    5.1502   22.6096 C   0  0  0  0  0  0  0  0  0  0  0  0
    5.9688    1.7379   21.4339 C   0  0  0  0  0  0  0  0  0  0  0  0
    7.0795    1.7181   20.4260 O   0  0  0  0  0  0  0  0  0  0  0  0
    6.0054    2.7152   22.5712 N   0  0  0  0  0  0  0  0  0  0  0  0
    5.2764    2.7282   23.2327 H   0  0  0  0  0  0  0  0  0  0  0  0
    4.8214    0.7803   21.3045 C   0  0  0  0  0  0  0  0  0  0  0  0
    4.1879    0.5455   19.9652 O   0  0  0  0  0  0  0  0  0  0  0  0
    3.4201    1.6462   19.2954 S   0  0  0  0  0  0  0  0  0  0  0  0
    4.3672    1.5996   18.1331 O   0  0  0  0  0  0  0  0  0  0  0  0
    2.4730    1.6929   20.4576 O   0  0  0  0  0  0  0  0  0  0  0  0
    1.8123    3.6816   19.4445 C   0  0  0  0  0  0  0  0  0  0  0  0
    2.6523    2.7470   18.6254 N   0  0  0  0  0  0  0  0  0  0  0  0
    2.7013    2.8600   17.6129 H   0  0  0  0  0  0  0  0  0  0  0  0
 31 32  1  0  0  0
 32 28  1  0  0  0
 28 29  2  0  0  0
 28 30  2  0  0  0
 28 27  1  0  0  0
 27 26  1  0  0  0
 26 22  1  0  0  0
 22 23  2  0  0  0
 22 24  1  0  0  0
 24 20  1  0  0  0
 20 21  1  0  0  0
 20  1  1  0  0  0
  1  2  2  0  0  0
  2  3  1  0  0  0
  3  4  1  0  0  0
  3  5  2  0  0  0
  5  6  1  0  0  0
  6  8  1  0  0  0
  8  9  2  0  0  0
  9 10  1  0  0  0
 10 11  2  0  0  0
 11 14  1  0  0  0
 14 15  1  0  0  0
 14 16  2  0  0  0
 14 17  2  0  0  0
 11 12  1  0  0  0
 12 13  2  0  0  0
  6  7  2  0  0  0
  7  1  1  0  0  0
 13  8  1  0  0  0
 32 33  1  0  0  0
 24 25  1  0  0  0
 15 18  1  0  0  0
 15 19  1  0  0  0
M  END
> <minimizedAffinity>
-7.26066

> <CNNscore>
0.3777723014

> <CNNaffinity>
5.7771883011

> <CNN_VS>
2.1824617386

> <CNNaffinity_variance>
0.1026054621

$$$$



 33 34  0  0  0  0  0  0  0  0999 V2000
   10.7162    0.4183   23.7047 C   0  0  0  0  0  0  0  0  0  0  0  0
   12.0345   -0.0433   24.2515 C   0  0  0  0  0  0  0  0  0  0  0  0
   12.2172   -1.4751   24.6597 C   0  0  0  0  0  0  0  0  0  0  0  0
   13.5355   -1.9367   25.2065 Cl  0  0  0  0  0  0  0  0  0  0  0  0
   11.0816   -2.4453   24.5211 C   0  0  0  0  0  0  0  0  0  0  0  0
    9.7634   -1.9837   23.9743 C   0  0  0  0  0  0  0  0  0  0  0  0
    9.5807   -0.5519   23.5661 C   0  0  0  0  0  0  0  0  0  0  0  0
    8.6277   -2.9539   23.8356 C   0  0  0  0  0  0  0  0  0  0  0  0
    8.5960   -4.1963   24.6754 C   0  0  0  0  0  0  0  0  0  0  0  0
    7.4603   -5.1665   24.5368 C   0  0  0  0  0  0  0  0  0  0  0  0
    6.3565   -4.8941   23.5583 C   0  0  0  0  0  0  0  0  0  0  0  0
    6.3883   -3.6516   22.7185 C   0  0  0  0  0  0  0  0  0  0  0  0
    7.5239   -2.6815   22.8572 C   0  0  0  0  0  0  0  0  0  0  0  0
    5.2209   -5.8643   23.4197 S   0  0  0  0  0  0  0  0  0  0  0  0
    4.0853   -6.8344   23.2810 N   0  0  0  0  0  0  0  0  0  0  0  0
    4.7505   -5.1384   22.1942 O   0  0  0  0  0  0  0  0  0  0  0  0
    5.6913   -6.5901   24.6451 O   0  0  0  0  0  0  0  0  0  0  0  0
    3.4222   -6.7367   22.5122 H   0  0  0  0  0  0  0  0  0  0  0  0
    3.9762   -7.5916   23.9555 H   0  0  0  0  0  0  0  0  0  0  0  0
   10.5335    1.8500   23.2965 C   0  0  0  0  0  0  0  0  0  0  0  0
   11.6680    2.6003   22.6642 C   0  0  0  0  0  0  0  0  0  0  0  0
    8.1796    2.5352   22.4365 C   0  0  0  0  0  0  0  0  0  0  0  0
    8.4602    1.8573   21.1282 O   0  0  0  0  0  0  0  0  0  0  0  0
    9.2162    2.5316   23.5206 N   0  0  0  0  0  0  0  0  0  0  0  0
    9.0320    2.9765   24.3793 H   0  0  0  0  0  0  0  0  0  0  0  0
    6.8623    3.2168   22.6607 C   0  0  0  0  0  0  0  0  0  0  0  0
    6.6134    4.5774   22.0802 O   0  0  0  0  0  0  0  0  0  0  0  0
    5.2385    4.9536   21.6133 S   0  0  0  0  0  0  0  0  0  0  0  0
    5.0837    3.6024   20.9807 O   0  0  0  0  0  0  0  0  0  0  0  0
    5.3934    6.3047   22.2460 O   0  0  0  0  0  0  0  0  0  0  0  0
    2.7862    4.2888   21.0707 C   0  0  0  0  0  0  0  0  0  0  0  0
    3.8635    5.3298   21.1464 N   0  0  0  0  0  0  0  0  0  0  0  0
    3.6611    6.2934   20.8803 H   0  0  0  0  0  0  0  0  0  0  0  0
 31 32  1  0  0  0
 32 28  1  0  0  0
 28 29  2  0  0  0
 28 30  2  0  0  0
 28 27  1  0  0  0
 27 26  1  0  0  0
 26 22  1  0  0  0
 22 23  2  0  0  0
 22 24  1  0  0  0
 24 20  1  0  0  0
 20 21  1  0  0  0
 20  1  1  0  0  0
  1  2  2  0  0  0
  2  3  1  0  0  0
  3  4  1  0  0  0
  3  5  2  0  0  0
  5  6  1  0  0  0
  6  8  1  0  0  0
  8  9  2  0  0  0
  9 10  1  0  0  0
 10 11  2  0  0  0
 11 14  1  0  0  0
 14 15  1  0  0  0
 14 16  2  0  0  0
 14 17  2  0  0  0
 11 12  1  0  0  0
 12 13  2  0  0  0
  6  7  2  0  0  0
  7  1  1  0  0  0
 13  8  1  0  0  0
 32 33  1  0  0  0
 24 25  1  0  0  0
 15 18  1  0  0  0
 15 19  1  0  0  0
M  END
> <minimizedAffinity>
-6.84505

> <CNNscore>
0.3767628074

> <CNNaffinity>
5.8925127983

> <CNN_VS>
2.2200796604

> <CNNaffinity_variance>
0.1299005747

$$$$



 33 34  0  0  0  0  0  0  0  0999 V2000
   10.8023    0.4072   23.7189 C   0  0  0  0  0  0  0  0  0  0  0  0
   12.1019   -0.0742   24.2928 C   0  0  0  0  0  0  0  0  0  0  0  0
   12.2525   -1.5071   24.7100 C   0  0  0  0  0  0  0  0  0  0  0  0
   13.5522   -1.9885   25.2839 Cl  0  0  0  0  0  0  0  0  0  0  0  0
   11.1036   -2.4586   24.5533 C   0  0  0  0  0  0  0  0  0  0  0  0
    9.8041   -1.9773   23.9794 C   0  0  0  0  0  0  0  0  0  0  0  0
    9.6534   -0.5443   23.5622 C   0  0  0  0  0  0  0  0  0  0  0  0
    8.6551   -2.9288   23.8227 C   0  0  0  0  0  0  0  0  0  0  0  0
    7.5841   -2.6511   22.8099 C   0  0  0  0  0  0  0  0  0  0  0  0
    6.4351   -3.6026   22.6532 C   0  0  0  0  0  0  0  0  0  0  0  0
    6.3572   -4.8318   23.5093 C   0  0  0  0  0  0  0  0  0  0  0  0
    7.4283   -5.1096   24.5221 C   0  0  0  0  0  0  0  0  0  0  0  0
    8.5772   -4.1580   24.6788 C   0  0  0  0  0  0  0  0  0  0  0  0
    5.2083   -5.7834   23.3526 S   0  0  0  0  0  0  0  0  0  0  0  0
    4.0594   -6.7349   23.1959 N   0  0  0  0  0  0  0  0  0  0  0  0
    5.6667   -6.5366   24.5660 O   0  0  0  0  0  0  0  0  0  0  0  0
    4.7499   -5.0301   22.1392 O   0  0  0  0  0  0  0  0  0  0  0  0
    3.9387   -7.5020   23.8573 H   0  0  0  0  0  0  0  0  0  0  0  0
    3.3988   -6.6148   22.4281 H   0  0  0  0  0  0  0  0  0  0  0  0
   10.6517    1.8401   23.3017 C   0  0  0  0  0  0  0  0  0  0  0  0
   11.8003    2.5586   22.6582 C   0  0  0  0  0  0  0  0  0  0  0  0
    8.3089    2.5729   22.4507 C   0  0  0  0  0  0  0  0  0  0  0  0
    8.5647    1.8768   21.1469 O   0  0  0  0  0  0  0  0  0  0  0  0
    9.3523    2.5545   23.5281 N   0  0  0  0  0  0  0  0  0  0  0  0
    9.1844    3.0114   24.3839 H   0  0  0  0  0  0  0  0  0  0  0  0
    7.0095    3.2873   22.6771 C   0  0  0  0  0  0  0  0  0  0  0  0
    6.9505    4.7834   22.5864 O   0  0  0  0  0  0  0  0  0  0  0  0
    5.8265    5.4462   21.8467 S   0  0  0  0  0  0  0  0  0  0  0  0
    5.4167    4.1191   21.2803 O   0  0  0  0  0  0  0  0  0  0  0  0
    6.2363    6.7733   22.4130 O   0  0  0  0  0  0  0  0  0  0  0  0
    4.0965    7.3735   21.6396 C   0  0  0  0  0  0  0  0  0  0  0  0
    4.7024    6.1090   21.1069 N   0  0  0  0  0  0  0  0  0  0  0  0
    4.3501    5.6998   20.2415 H   0  0  0  0  0  0  0  0  0  0  0  0
 31 32  1  0  0  0
 32 28  1  0  0  0
 28 29  2  0  0  0
 28 30  2  0  0  0
 28 27  1  0  0  0
 27 26  1  0  0  0
 26 22  1  0  0  0
 22 23  2  0  0  0
 22 24  1  0  0  0
 24 20  1  0  0  0
 20 21  1  0  0  0
 20  1  1  0  0  0
  1  2  2  0  0  0
  2  3  1  0  0  0
  3  4  1  0  0  0
  3  5  2  0  0  0
  5  6  1  0  0  0
  6  8  1  0  0  0
  8  9  2  0  0  0
  9 10  1  0  0  0
 10 11  2  0  0  0
 11 14  1  0  0  0
 14 15  1  0  0  0
 14 16  2  0  0  0
 14 17  2  0  0  0
 11 12  1  0  0  0
 12 13  2  0  0  0
  6  7  2  0  0  0
  7  1  1  0  0  0
 13  8  1  0  0  0
 32 33  1  0  0  0
 24 25  1  0  0  0
 15 18  1  0  0  0
 15 19  1  0  0  0
M  END
> <minimizedAffinity>
-6.80102

> <CNNscore>
0.3609868288

> <CNNaffinity>
5.8157267570

> <CNN_VS>
2.0994007587

> <CNNaffinity_variance>
0.0900659189

$$$$



 33 34  0  0  0  0  0  0  0  0999 V2000
   10.7037    0.3684   23.4687 C   0  0  0  0  0  0  0  0  0  0  0  0
   11.9883   -0.0160   24.1410 C   0  0  0  0  0  0  0  0  0  0  0  0
   12.1561   -1.3960   24.7046 C   0  0  0  0  0  0  0  0  0  0  0  0
   13.4408   -1.7803   25.3769 Cl  0  0  0  0  0  0  0  0  0  0  0  0
   11.0394   -2.3914   24.5960 C   0  0  0  0  0  0  0  0  0  0  0  0
    9.7548   -2.0070   23.9237 C   0  0  0  0  0  0  0  0  0  0  0  0
    9.5869   -0.6271   23.3601 C   0  0  0  0  0  0  0  0  0  0  0  0
    8.6379   -3.0025   23.8151 C   0  0  0  0  0  0  0  0  0  0  0  0
    7.5364   -2.7882   22.8198 C   0  0  0  0  0  0  0  0  0  0  0  0
    6.4195   -3.7837   22.7112 C   0  0  0  0  0  0  0  0  0  0  0  0
    6.4044   -4.9935   23.5978 C   0  0  0  0  0  0  0  0  0  0  0  0
    7.5060   -5.2078   24.5931 C   0  0  0  0  0  0  0  0  0  0  0  0
    8.6228   -4.2123   24.7017 C   0  0  0  0  0  0  0  0  0  0  0  0
    5.2876   -5.9890   23.4892 S   0  0  0  0  0  0  0  0  0  0  0  0
    4.1709   -6.9845   23.3806 N   0  0  0  0  0  0  0  0  0  0  0  0
    4.7023   -5.2081   22.3501 O   0  0  0  0  0  0  0  0  0  0  0  0
    5.8730   -6.7699   24.6282 O   0  0  0  0  0  0  0  0  0  0  0  0
    3.4465   -6.8631   22.6728 H   0  0  0  0  0  0  0  0  0  0  0  0
    4.1359   -7.7829   24.0144 H   0  0  0  0  0  0  0  0  0  0  0  0
   10.5358    1.7483   22.9051 C   0  0  0  0  0  0  0  0  0  0  0  0
   11.4897    2.8385   23.2941 C   0  0  0  0  0  0  0  0  0  0  0  0
    8.0419    2.3386   22.4787 C   0  0  0  0  0  0  0  0  0  0  0  0
    7.7915    2.3495   23.9576 O   0  0  0  0  0  0  0  0  0  0  0  0
    9.4140    2.0380   21.9524 N   0  0  0  0  0  0  0  0  0  0  0  0
    9.5783    2.0308   20.9818 H   0  0  0  0  0  0  0  0  0  0  0  0
    6.9201    2.6283   21.5259 C   0  0  0  0  0  0  0  0  0  0  0  0
    6.3992    1.5447   20.6289 O   0  0  0  0  0  0  0  0  0  0  0  0
    4.9273    1.4352   20.3617 S   0  0  0  0  0  0  0  0  0  0  0  0
    4.6388    2.0495   21.6993 O   0  0  0  0  0  0  0  0  0  0  0  0
    5.2158    0.8208   19.0241 O   0  0  0  0  0  0  0  0  0  0  0  0
    2.7813    2.3154   19.1912 C   0  0  0  0  0  0  0  0  0  0  0  0
    3.4553    1.3257   20.0946 N   0  0  0  0  0  0  0  0  0  0  0  0
    2.9127    0.5781   20.5272 H   0  0  0  0  0  0  0  0  0  0  0  0
 31 32  1  0  0  0
 32 28  1  0  0  0
 28 29  2  0  0  0
 28 30  2  0  0  0
 28 27  1  0  0  0
 27 26  1  0  0  0
 26 22  1  0  0  0
 22 23  2  0  0  0
 22 24  1  0  0  0
 24 20  1  0  0  0
 20 21  1  0  0  0
 20  1  1  0  0  0
  1  2  2  0  0  0
  2  3  1  0  0  0
  3  4  1  0  0  0
  3  5  2  0  0  0
  5  6  1  0  0  0
  6  8  1  0  0  0
  8  9  2  0  0  0
  9 10  1  0  0  0
 10 11  2  0  0  0
 11 14  1  0  0  0
 14 15  1  0  0  0
 14 16  2  0  0  0
 14 17  2  0  0  0
 11 12  1  0  0  0
 12 13  2  0  0  0
  6  7  2  0  0  0
  7  1  1  0  0  0
 13  8  1  0  0  0
 32 33  1  0  0  0
 24 25  1  0  0  0
 15 18  1  0  0  0
 15 19  1  0  0  0
M  END
> <minimizedAffinity>
-6.99621

> <CNNscore>
0.3232834041

> <CNNaffinity>
5.9684743881

> <CNN_VS>
1.9295086861

> <CNNaffinity_variance>
0.0865970999

$$$$
