


 33 34  0  0  0  0  0  0  0  0999 V2000
   -8.1602   -3.2585  -23.1506 C   0  0  0  0  0  0  0  0  0  0  0  0
   -8.6485   -4.3649  -24.0379 C   0  0  0  0  0  0  0  0  0  0  0  0
   -9.9143   -4.1926  -24.8240 C   0  0  0  0  0  0  0  0  0  0  0  0
  -10.4026   -5.2991  -25.7114 Cl  0  0  0  0  0  0  0  0  0  0  0  0
  -10.6918   -2.9138  -24.7229 C   0  0  0  0  0  0  0  0  0  0  0  0
  -10.2035   -1.8074  -23.8356 C   0  0  0  0  0  0  0  0  0  0  0  0
   -8.9377   -1.9798  -23.0494 C   0  0  0  0  0  0  0  0  0  0  0  0
  -10.9810   -0.5286  -23.7345 C   0  0  0  0  0  0  0  0  0  0  0  0
  -10.2590    0.7838  -23.6546 C   0  0  0  0  0  0  0  0  0  0  0  0
  -11.0365    2.0626  -23.5535 C   0  0  0  0  0  0  0  0  0  0  0  0
  -12.5359    2.0290  -23.5321 C   0  0  0  0  0  0  0  0  0  0  0  0
  -13.2579    0.7165  -23.6120 C   0  0  0  0  0  0  0  0  0  0  0  0
  -12.4804   -0.5622  -23.7131 C   0  0  0  0  0  0  0  0  0  0  0  0
  -13.3134    3.3077  -23.4310 S   0  0  0  0  0  0  0  0  0  0  0  0
  -14.0909    4.5864  -23.3298 N   0  0  0  0  0  0  0  0  0  0  0  0
  -12.9810    3.6228  -24.8593 O   0  0  0  0  0  0  0  0  0  0  0  0
  -13.6459    2.9926  -22.0027 O   0  0  0  0  0  0  0  0  0  0  0  0
  -14.1595    5.2068  -24.1366 H   0  0  0  0  0  0  0  0  0  0  0  0
  -14.5511    4.8357  -22.4543 H   0  0  0  0  0  0  0  0  0  0  0  0
   -6.8944   -3.4308  -22.3644 C   0  0  0  0  0  0  0  0  0  0  0  0
   -6.1042   -4.7001  -22.4840 C   0  0  0  0  0  0  0  0  0  0  0  0
   -5.6373   -2.6677  -20.2226 C   0  0  0  0  0  0  0  0  0  0  0  0
   -5.3313   -4.0985  -19.8924 O   0  0  0  0  0  0  0  0  0  0  0  0
   -6.4188   -2.3339  -21.4587 N   0  0  0  0  0  0  0  0  0  0  0  0
   -6.6196   -1.3947  -21.6754 H   0  0  0  0  0  0  0  0  0  0  0  0
   -5.1617   -1.5706  -19.3169 C   0  0  0  0  0  0  0  0  0  0  0  0
   -5.2529   -0.1403  -19.7594 O   0  0  0  0  0  0  0  0  0  0  0  0
   -4.1647    0.8271  -19.3990 S   0  0  0  0  0  0  0  0  0  0  0  0
   -4.8300    1.0840  -18.0794 O   0  0  0  0  0  0  0  0  0  0  0  0
   -3.4993    0.5703  -20.7186 O   0  0  0  0  0  0  0  0  0  0  0  0
   -1.8796    1.9434  -19.9303 C   0  0  0  0  0  0  0  0  0  0  0  0
   -3.0764    1.7946  -19.0386 N   0  0  0  0  0  0  0  0  0  0  0  0
   -3.1504    2.3512  -18.1870 H   0  0  0  0  0  0  0  0  0  0  0  0
 31 32  1  0  0  0
 32 28  1  0  0  0
 28 29  2  0  0  0
 28 30  2  0  0  0
 28 27  1  0  0  0
 27 26  1  0  0  0
 26 22  1  0  0  0
 22 23  2  0  0  0
 22 24  1  0  0  0
 24 20  1  0  0  0
 20 21  1  0  0  0
 20  1  1  0  0  0
  1  2  2  0  0  0
  2  3  1  0  0  0
  3  4  1  0  0  0
  3  5  2  0  0  0
  5  6  1  0  0  0
  6  8  1  0  0  0
  8  9  2  0  0  0
  9 10  1  0  0  0
 10 11  2  0  0  0
 11 14  1  0  0  0
 14 15  1  0  0  0
 14 16  2  0  0  0
 14 17  2  0  0  0
 11 12  1  0  0  0
 12 13  2  0  0  0
  6  7  2  0  0  0
  7  1  1  0  0  0
 13  8  1  0  0  0
 32 33  1  0  0  0
 24 25  1  0  0  0
 15 18  1  0  0  0
 15 19  1  0  0  0
M  END
> <minimizedAffinity>
-8.05712

> <CNNscore>
0.8509889245

> <CNNaffinity>
6.2148852348

> <CNN_VS>
5.2887983322

> <CNNaffinity_variance>
0.1939970553

$$$$



 33 34  0  0  0  0  0  0  0  0999 V2000
   -8.3776   -1.6653  -23.2712 C   0  0  0  0  0  0  0  0  0  0  0  0
   -9.0638   -2.9140  -23.7401 C   0  0  0  0  0  0  0  0  0  0  0  0
  -10.4808   -2.8528  -24.2285 C   0  0  0  0  0  0  0  0  0  0  0  0
  -11.1670   -4.1016  -24.6973 Cl  0  0  0  0  0  0  0  0  0  0  0  0
  -11.2114   -1.5430  -24.2481 C   0  0  0  0  0  0  0  0  0  0  0  0
  -10.5252   -0.2943  -23.7793 C   0  0  0  0  0  0  0  0  0  0  0  0
   -9.1082   -0.3555  -23.2908 C   0  0  0  0  0  0  0  0  0  0  0  0
  -11.2559    1.0156  -23.7988 C   0  0  0  0  0  0  0  0  0  0  0  0
  -10.5412    2.2669  -24.2152 C   0  0  0  0  0  0  0  0  0  0  0  0
  -11.2718    3.5768  -24.2348 C   0  0  0  0  0  0  0  0  0  0  0  0
  -12.7172    3.6353  -23.8380 C   0  0  0  0  0  0  0  0  0  0  0  0
  -13.4319    2.3839  -23.4216 C   0  0  0  0  0  0  0  0  0  0  0  0
  -12.7012    1.0741  -23.4020 C   0  0  0  0  0  0  0  0  0  0  0  0
  -13.4479    4.9452  -23.8575 S   0  0  0  0  0  0  0  0  0  0  0  0
  -14.1786    6.2550  -23.8771 N   0  0  0  0  0  0  0  0  0  0  0  0
  -12.8500    5.2587  -25.1970 O   0  0  0  0  0  0  0  0  0  0  0  0
  -14.0458    4.6316  -22.5181 O   0  0  0  0  0  0  0  0  0  0  0  0
  -14.0749    6.8849  -24.6726 H   0  0  0  0  0  0  0  0  0  0  0  0
  -14.7791    6.5157  -23.0949 H   0  0  0  0  0  0  0  0  0  0  0  0
   -6.9606   -1.7265  -22.7828 C   0  0  0  0  0  0  0  0  0  0  0  0
   -5.8271   -1.5092  -23.7408 C   0  0  0  0  0  0  0  0  0  0  0  0
   -7.1589   -1.0539  -20.2812 C   0  0  0  0  0  0  0  0  0  0  0  0
   -7.9238    0.1757  -20.6723 O   0  0  0  0  0  0  0  0  0  0  0  0
   -6.6773   -2.0049  -21.3364 N   0  0  0  0  0  0  0  0  0  0  0  0
   -6.1752   -2.8119  -21.0796 H   0  0  0  0  0  0  0  0  0  0  0  0
   -6.8755   -1.3324  -18.8347 C   0  0  0  0  0  0  0  0  0  0  0  0
   -5.5031   -1.0913  -18.2794 O   0  0  0  0  0  0  0  0  0  0  0  0
   -4.7956    0.2007  -18.5628 S   0  0  0  0  0  0  0  0  0  0  0  0
   -4.2437   -0.3797  -19.8310 O   0  0  0  0  0  0  0  0  0  0  0  0
   -5.3476    0.7811  -17.2946 O   0  0  0  0  0  0  0  0  0  0  0  0
   -3.0407    1.5548  -19.9181 C   0  0  0  0  0  0  0  0  0  0  0  0
   -4.0882    1.4927  -18.8462 N   0  0  0  0  0  0  0  0  0  0  0  0
   -4.3194    2.3290  -18.3101 H   0  0  0  0  0  0  0  0  0  0  0  0
 31 32  1  0  0  0
 32 28  1  0  0  0
 28 29  2  0  0  0
 28 30  2  0  0  0
 28 27  1  0  0  0
 27 26  1  0  0  0
 26 22  1  0  0  0
 22 23  2  0  0  0
 22 24  1  0  0  0
 24 20  1  0  0  0
 20 21  1  0  0  0
 20  1  1  0  0  0
  1  2  2  0  0  0
  2  3  1  0  0  0
  3  4  1  0  0  0
  3  5  2  0  0  0
  5  6  1  0  0  0
  6  8  1  0  0  0
  8  9  2  0  0  0
  9 10  1  0  0  0
 10 11  2  0  0  0
 11 14  1  0  0  0
 14 15  1  0  0  0
 14 16  2  0  0  0
 14 17  2  0  0  0
 11 12  1  0  0  0
 12 13  2  0  0  0
  6  7  2  0  0  0
  7  1  1  0  0  0
 13  8  1  0  0  0
 32 33  1  0  0  0
 24 25  1  0  0  0
 15 18  1  0  0  0
 15 19  1  0  0  0
M  END
> <minimizedAffinity>
-7.99618

> <CNNscore>
0.8142428398

> <CNNaffinity>
6.2204103470

> <CNN_VS>
5.0649247169

> <CNNaffinity_variance>
0.3588837981

$$$$



 33 34  0  0  0  0  0  0  0  0999 V2000
  -10.3277   -2.2680  -23.1776 C   0  0  0  0  0  0  0  0  0  0  0  0
  -11.5466   -2.9433  -22.6226 C   0  0  0  0  0  0  0  0  0  0  0  0
  -12.8339   -2.1834  -22.4983 C   0  0  0  0  0  0  0  0  0  0  0  0
  -14.0529   -2.8588  -21.9432 Cl  0  0  0  0  0  0  0  0  0  0  0  0
  -12.9023   -0.7483  -22.9291 C   0  0  0  0  0  0  0  0  0  0  0  0
  -11.6834   -0.0730  -23.4842 C   0  0  0  0  0  0  0  0  0  0  0  0
  -10.3961   -0.8328  -23.6085 C   0  0  0  0  0  0  0  0  0  0  0  0
  -11.7518    1.3622  -23.9150 C   0  0  0  0  0  0  0  0  0  0  0  0
  -10.5245    2.0473  -24.4389 C   0  0  0  0  0  0  0  0  0  0  0  0
  -10.5929    3.4825  -24.8697 C   0  0  0  0  0  0  0  0  0  0  0  0
  -11.8885    4.2326  -24.7767 C   0  0  0  0  0  0  0  0  0  0  0  0
  -13.1158    3.5474  -24.2529 C   0  0  0  0  0  0  0  0  0  0  0  0
  -13.0474    2.1123  -23.8220 C   0  0  0  0  0  0  0  0  0  0  0  0
  -11.9569    5.6677  -25.2075 S   0  0  0  0  0  0  0  0  0  0  0  0
  -12.0253    7.1029  -25.6383 N   0  0  0  0  0  0  0  0  0  0  0  0
  -10.8015    5.4437  -26.1374 O   0  0  0  0  0  0  0  0  0  0  0  0
  -13.1124    5.8918  -24.2777 O   0  0  0  0  0  0  0  0  0  0  0  0
  -11.3681    7.4589  -26.3324 H   0  0  0  0  0  0  0  0  0  0  0  0
  -12.7291    7.7228  -25.2372 H   0  0  0  0  0  0  0  0  0  0  0  0
   -9.0403   -3.0278  -23.3019 C   0  0  0  0  0  0  0  0  0  0  0  0
   -8.9198   -4.1410  -24.3000 C   0  0  0  0  0  0  0  0  0  0  0  0
   -6.7472   -1.8504  -22.9778 C   0  0  0  0  0  0  0  0  0  0  0  0
   -6.7876   -1.3797  -24.4015 O   0  0  0  0  0  0  0  0  0  0  0  0
   -7.8735   -2.6745  -22.4281 N   0  0  0  0  0  0  0  0  0  0  0  0
   -7.8470   -2.9834  -21.4937 H   0  0  0  0  0  0  0  0  0  0  0  0
   -5.5803   -1.4971  -22.1039 C   0  0  0  0  0  0  0  0  0  0  0  0
   -5.1702   -2.4169  -20.9923 O   0  0  0  0  0  0  0  0  0  0  0  0
   -5.3282   -1.9849  -19.5646 S   0  0  0  0  0  0  0  0  0  0  0  0
   -5.4016   -0.5532  -20.0059 O   0  0  0  0  0  0  0  0  0  0  0  0
   -5.2547   -3.4166  -19.1232 O   0  0  0  0  0  0  0  0  0  0  0  0
   -5.3352   -0.1063  -17.7699 C   0  0  0  0  0  0  0  0  0  0  0  0
   -5.4861   -1.5529  -18.1368 N   0  0  0  0  0  0  0  0  0  0  0  0
   -5.6961   -2.2428  -17.4154 H   0  0  0  0  0  0  0  0  0  0  0  0
 31 32  1  0  0  0
 32 28  1  0  0  0
 28 29  2  0  0  0
 28 30  2  0  0  0
 28 27  1  0  0  0
 27 26  1  0  0  0
 26 22  1  0  0  0
 22 23  2  0  0  0
 22 24  1  0  0  0
 24 20  1  0  0  0
 20 21  1  0  0  0
 20  1  1  0  0  0
  1  2  2  0  0  0
  2  3  1  0  0  0
  3  4  1  0  0  0
  3  5  2  0  0  0
  5  6  1  0  0  0
  6  8  1  0  0  0
  8  9  2  0  0  0
  9 10  1  0  0  0
 10 11  2  0  0  0
 11 14  1  0  0  0
 14 15  1  0  0  0
 14 16  2  0  0  0
 14 17  2  0  0  0
 11 12  1  0  0  0
 12 13  2  0  0  0
  6  7  2  0  0  0
  7  1  1  0  0  0
 13  8  1  0  0  0
 32 33  1  0  0  0
 24 25  1  0  0  0
 15 18  1  0  0  0
 15 19  1  0  0  0
M  END
> <minimizedAffinity>
-7.25545

> <CNNscore>
0.7485046387

> <CNNaffinity>
6.0258841515

> <CNN_VS>
4.5104022026

> <CNNaffinity_variance>
0.2985090613

$$$$



 33 34  0  0  0  0  0  0  0  0999 V2000
   -8.5110   -1.4347  -22.2573 C   0  0  0  0  0  0  0  0  0  0  0  0
   -9.1075   -2.6730  -22.8579 C   0  0  0  0  0  0  0  0  0  0  0  0
  -10.4023   -2.5926  -23.6109 C   0  0  0  0  0  0  0  0  0  0  0  0
  -10.9987   -3.8310  -24.2115 Cl  0  0  0  0  0  0  0  0  0  0  0  0
  -11.1007   -1.2739  -23.7632 C   0  0  0  0  0  0  0  0  0  0  0  0
  -10.5042   -0.0356  -23.1625 C   0  0  0  0  0  0  0  0  0  0  0  0
   -9.2094   -0.1160  -22.4096 C   0  0  0  0  0  0  0  0  0  0  0  0
  -11.2026    1.2832  -23.3148 C   0  0  0  0  0  0  0  0  0  0  0  0
  -10.4438    2.4819  -23.8019 C   0  0  0  0  0  0  0  0  0  0  0  0
  -11.1422    3.8007  -23.9542 C   0  0  0  0  0  0  0  0  0  0  0  0
  -12.5994    3.9207  -23.6193 C   0  0  0  0  0  0  0  0  0  0  0  0
  -13.3582    2.7219  -23.1322 C   0  0  0  0  0  0  0  0  0  0  0  0
  -12.6598    1.4032  -22.9799 C   0  0  0  0  0  0  0  0  0  0  0  0
  -13.2978    5.2394  -23.7716 S   0  0  0  0  0  0  0  0  0  0  0  0
  -13.9962    6.5581  -23.9239 N   0  0  0  0  0  0  0  0  0  0  0  0
  -12.2785    5.6619  -24.7876 O   0  0  0  0  0  0  0  0  0  0  0  0
  -14.3172    4.8168  -22.7556 O   0  0  0  0  0  0  0  0  0  0  0  0
  -13.6334    7.2553  -24.5740 H   0  0  0  0  0  0  0  0  0  0  0  0
  -14.8340    6.7576  -23.3773 H   0  0  0  0  0  0  0  0  0  0  0  0
   -7.2162   -1.5151  -21.5043 C   0  0  0  0  0  0  0  0  0  0  0  0
   -6.2585   -2.6369  -21.7769 C   0  0  0  0  0  0  0  0  0  0  0  0
   -6.1704   -0.8661  -19.2163 C   0  0  0  0  0  0  0  0  0  0  0  0
   -5.7988   -2.2999  -18.9794 O   0  0  0  0  0  0  0  0  0  0  0  0
   -6.8790   -0.4737  -20.4788 N   0  0  0  0  0  0  0  0  0  0  0  0
   -7.1229    0.4674  -20.6342 H   0  0  0  0  0  0  0  0  0  0  0  0
   -5.8332    0.1754  -18.1907 C   0  0  0  0  0  0  0  0  0  0  0  0
   -4.6684    1.0946  -18.4102 O   0  0  0  0  0  0  0  0  0  0  0  0
   -3.8130    0.9426  -19.6329 S   0  0  0  0  0  0  0  0  0  0  0  0
   -3.4347    2.3916  -19.5485 O   0  0  0  0  0  0  0  0  0  0  0  0
   -4.1913   -0.5065  -19.7173 O   0  0  0  0  0  0  0  0  0  0  0  0
   -1.8664    1.7810  -21.1355 C   0  0  0  0  0  0  0  0  0  0  0  0
   -2.9575    0.7905  -20.8557 N   0  0  0  0  0  0  0  0  0  0  0  0
   -3.1177    0.0136  -21.4968 H   0  0  0  0  0  0  0  0  0  0  0  0
 31 32  1  0  0  0
 32 28  1  0  0  0
 28 29  2  0  0  0
 28 30  2  0  0  0
 28 27  1  0  0  0
 27 26  1  0  0  0
 26 22  1  0  0  0
 22 23  2  0  0  0
 22 24  1  0  0  0
 24 20  1  0  0  0
 20 21  1  0  0  0
 20  1  1  0  0  0
  1  2  2  0  0  0
  2  3  1  0  0  0
  3  4  1  0  0  0
  3  5  2  0  0  0
  5  6  1  0  0  0
  6  8  1  0  0  0
  8  9  2  0  0  0
  9 10  1  0  0  0
 10 11  2  0  0  0
 11 14  1  0  0  0
 14 15  1  0  0  0
 14 16  2  0  0  0
 14 17  2  0  0  0
 11 12  1  0  0  0
 12 13  2  0  0  0
  6  7  2  0  0  0
  7  1  1  0  0  0
 13  8  1  0  0  0
 32 33  1  0  0  0
 24 25  1  0  0  0
 15 18  1  0  0  0
 15 19  1  0  0  0
M  END
> <minimizedAffinity>
-7.67727

> <CNNscore>
0.3952543139

> <CNNaffinity>
5.5139617920

> <CNN_VS>
2.1794171333

> <CNNaffinity_variance>
0.3153055608

$$$$



 33 34  0  0  0  0  0  0  0  0999 V2000
   -8.0010   -3.5476  -23.5613 C   0  0  0  0  0  0  0  0  0  0  0  0
   -8.5898   -4.6167  -24.4333 C   0  0  0  0  0  0  0  0  0  0  0  0
   -9.9388   -4.4165  -25.0580 C   0  0  0  0  0  0  0  0  0  0  0  0
  -10.5276   -5.4856  -25.9300 Cl  0  0  0  0  0  0  0  0  0  0  0  0
  -10.6990   -3.1473  -24.8106 C   0  0  0  0  0  0  0  0  0  0  0  0
  -10.1102   -2.0783  -23.9386 C   0  0  0  0  0  0  0  0  0  0  0  0
   -8.7612   -2.2784  -23.3140 C   0  0  0  0  0  0  0  0  0  0  0  0
  -10.8704   -0.8090  -23.6912 C   0  0  0  0  0  0  0  0  0  0  0  0
  -12.3673   -0.8008  -23.7857 C   0  0  0  0  0  0  0  0  0  0  0  0
  -13.1275    0.4685  -23.5383 C   0  0  0  0  0  0  0  0  0  0  0  0
  -12.3907    1.7295  -23.1964 C   0  0  0  0  0  0  0  0  0  0  0  0
  -10.8936    1.7212  -23.1020 C   0  0  0  0  0  0  0  0  0  0  0  0
  -10.1335    0.4520  -23.3494 C   0  0  0  0  0  0  0  0  0  0  0  0
  -13.1508    2.9987  -22.9490 S   0  0  0  0  0  0  0  0  0  0  0  0
  -13.9109    4.2679  -22.7016 N   0  0  0  0  0  0  0  0  0  0  0  0
  -12.7793    2.9382  -21.4971 O   0  0  0  0  0  0  0  0  0  0  0  0
  -13.5223    3.0592  -24.4010 O   0  0  0  0  0  0  0  0  0  0  0  0
  -13.9505    4.6638  -21.7625 H   0  0  0  0  0  0  0  0  0  0  0  0
  -14.3881    4.7351  -23.4726 H   0  0  0  0  0  0  0  0  0  0  0  0
   -6.6520   -3.7478  -22.9367 C   0  0  0  0  0  0  0  0  0  0  0  0
   -6.2472   -5.1059  -22.4451 C   0  0  0  0  0  0  0  0  0  0  0  0
   -5.7408   -1.7329  -21.5730 C   0  0  0  0  0  0  0  0  0  0  0  0
   -6.7179   -2.0338  -20.4754 O   0  0  0  0  0  0  0  0  0  0  0  0
   -5.7079   -2.5899  -22.8036 N   0  0  0  0  0  0  0  0  0  0  0  0
   -5.0666   -2.3923  -23.5240 H   0  0  0  0  0  0  0  0  0  0  0  0
   -4.7966   -0.5749  -21.4400 C   0  0  0  0  0  0  0  0  0  0  0  0
   -5.0273    0.4633  -20.3822 O   0  0  0  0  0  0  0  0  0  0  0  0
   -3.8682    1.2308  -19.8191 S   0  0  0  0  0  0  0  0  0  0  0  0
   -4.4637    1.1232  -18.4466 O   0  0  0  0  0  0  0  0  0  0  0  0
   -3.2726    1.3384  -21.1915 O   0  0  0  0  0  0  0  0  0  0  0  0
   -1.8400    2.8176  -20.1634 C   0  0  0  0  0  0  0  0  0  0  0  0
   -2.7090    1.9984  -19.2558 N   0  0  0  0  0  0  0  0  0  0  0  0
   -2.5116    1.9632  -18.2557 H   0  0  0  0  0  0  0  0  0  0  0  0
 31 32  1  0  0  0
 32 28  1  0  0  0
 28 29  2  0  0  0
 28 30  2  0  0  0
 28 27  1  0  0  0
 27 26  1  0  0  0
 26 22  1  0  0  0
 22 23  2  0  0  0
 22 24  1  0  0  0
 24 20  1  0  0  0
 20 21  1  0  0  0
 20  1  1  0  0  0
  1  2  2  0  0  0
  2  3  1  0  0  0
  3  4  1  0  0  0
  3  5  2  0  0  0
  5  6  1  0  0  0
  6  8  1  0  0  0
  8  9  2  0  0  0
  9 10  1  0  0  0
 10 11  2  0  0  0
 11 14  1  0  0  0
 14 15  1  0  0  0
 14 16  2  0  0  0
 14 17  2  0  0  0
 11 12  1  0  0  0
 12 13  2  0  0  0
  6  7  2  0  0  0
  7  1  1  0  0  0
 13  8  1  0  0  0
 32 33  1  0  0  0
 24 25  1  0  0  0
 15 18  1  0  0  0
 15 19  1  0  0  0
M  END
> <minimizedAffinity>
-7.42004

> <CNNscore>
0.3922517300

> <CNNaffinity>
5.7638206482

> <CNN_VS>
2.2608685493

> <CNNaffinity_variance>
0.0909533948

$$$$



 33 34  0  0  0  0  0  0  0  0999 V2000
   -9.3100   -3.8663  -24.0893 C   0  0  0  0  0  0  0  0  0  0  0  0
  -10.1587   -4.4701  -25.1687 C   0  0  0  0  0  0  0  0  0  0  0  0
   -9.6208   -5.5922  -26.0062 C   0  0  0  0  0  0  0  0  0  0  0  0
  -10.4696   -6.1959  -27.0857 Cl  0  0  0  0  0  0  0  0  0  0  0  0
   -8.2342   -6.1105  -25.7644 C   0  0  0  0  0  0  0  0  0  0  0  0
   -7.3855   -5.5068  -24.6850 C   0  0  0  0  0  0  0  0  0  0  0  0
   -7.9234   -4.3847  -23.8474 C   0  0  0  0  0  0  0  0  0  0  0  0
   -5.9988   -6.0252  -24.4431 C   0  0  0  0  0  0  0  0  0  0  0  0
   -4.9587   -5.9149  -25.5182 C   0  0  0  0  0  0  0  0  0  0  0  0
   -3.5720   -6.4333  -25.2763 C   0  0  0  0  0  0  0  0  0  0  0  0
   -3.2255   -7.0619  -23.9592 C   0  0  0  0  0  0  0  0  0  0  0  0
   -4.2656   -7.1721  -22.8840 C   0  0  0  0  0  0  0  0  0  0  0  0
   -5.6522   -6.6538  -23.1259 C   0  0  0  0  0  0  0  0  0  0  0  0
   -1.8389   -7.5802  -23.7173 S   0  0  0  0  0  0  0  0  0  0  0  0
   -0.4522   -8.0986  -23.4753 N   0  0  0  0  0  0  0  0  0  0  0  0
   -1.4543   -6.2659  -23.1054 O   0  0  0  0  0  0  0  0  0  0  0  0
   -2.2234   -8.8946  -24.3292 O   0  0  0  0  0  0  0  0  0  0  0  0
    0.2457   -7.5008  -23.0327 H   0  0  0  0  0  0  0  0  0  0  0  0
   -0.2073   -9.0489  -23.7534 H   0  0  0  0  0  0  0  0  0  0  0  0
   -9.8479   -2.7442  -23.2517 C   0  0  0  0  0  0  0  0  0  0  0  0
  -10.8925   -1.8247  -23.8113 C   0  0  0  0  0  0  0  0  0  0  0  0
   -8.2710   -1.5259  -21.5847 C   0  0  0  0  0  0  0  0  0  0  0  0
   -7.7074   -0.7127  -22.7121 O   0  0  0  0  0  0  0  0  0  0  0  0
   -9.3413   -2.5416  -21.8545 N   0  0  0  0  0  0  0  0  0  0  0  0
   -9.7112   -3.0753  -21.1145 H   0  0  0  0  0  0  0  0  0  0  0  0
   -7.7643   -1.3233  -20.1874 C   0  0  0  0  0  0  0  0  0  0  0  0
   -6.3770   -1.7612  -19.8219 O   0  0  0  0  0  0  0  0  0  0  0  0
   -5.4057   -0.7732  -19.2471 S   0  0  0  0  0  0  0  0  0  0  0  0
   -5.0184   -0.3481  -20.6324 O   0  0  0  0  0  0  0  0  0  0  0  0
   -5.7931   -1.1983  -17.8617 O   0  0  0  0  0  0  0  0  0  0  0  0
   -3.8071    1.2513  -19.5567 C   0  0  0  0  0  0  0  0  0  0  0  0
   -4.4344    0.2149  -18.6723 N   0  0  0  0  0  0  0  0  0  0  0  0
   -4.2005    0.1819  -17.6800 H   0  0  0  0  0  0  0  0  0  0  0  0
 31 32  1  0  0  0
 32 28  1  0  0  0
 28 29  2  0  0  0
 28 30  2  0  0  0
 28 27  1  0  0  0
 27 26  1  0  0  0
 26 22  1  0  0  0
 22 23  2  0  0  0
 22 24  1  0  0  0
 24 20  1  0  0  0
 20 21  1  0  0  0
 20  1  1  0  0  0
  1  2  2  0  0  0
  2  3  1  0  0  0
  3  4  1  0  0  0
  3  5  2  0  0  0
  5  6  1  0  0  0
  6  8  1  0  0  0
  8  9  2  0  0  0
  9 10  1  0  0  0
 10 11  2  0  0  0
 11 14  1  0  0  0
 14 15  1  0  0  0
 14 16  2  0  0  0
 14 17  2  0  0  0
 11 12  1  0  0  0
 12 13  2  0  0  0
  6  7  2  0  0  0
  7  1  1  0  0  0
 13  8  1  0  0  0
 32 33  1  0  0  0
 24 25  1  0  0  0
 15 18  1  0  0  0
 15 19  1  0  0  0
M  END
> <minimizedAffinity>
-6.87320

> <CNNscore>
0.3433204889

> <CNNaffinity>
5.6860418320

> <CNN_VS>
1.9521346092

> <CNNaffinity_variance>
0.2761361599

$$$$



 33 34  0  0  0  0  0  0  0  0999 V2000
   -8.7466   -0.7794  -21.9998 C   0  0  0  0  0  0  0  0  0  0  0  0
   -9.3488   -2.0780  -22.4479 C   0  0  0  0  0  0  0  0  0  0  0  0
  -10.6259   -2.0807  -23.2348 C   0  0  0  0  0  0  0  0  0  0  0  0
  -11.2280   -3.3794  -23.6829 Cl  0  0  0  0  0  0  0  0  0  0  0  0
  -11.3007   -0.7846  -23.5736 C   0  0  0  0  0  0  0  0  0  0  0  0
  -10.6985    0.5140  -23.1255 C   0  0  0  0  0  0  0  0  0  0  0  0
   -9.4215    0.5166  -22.3387 C   0  0  0  0  0  0  0  0  0  0  0  0
  -11.3733    1.8102  -23.4644 C   0  0  0  0  0  0  0  0  0  0  0  0
  -12.8704    1.9027  -23.4491 C   0  0  0  0  0  0  0  0  0  0  0  0
  -13.5452    3.1988  -23.7879 C   0  0  0  0  0  0  0  0  0  0  0  0
  -12.7229    4.4024  -24.1420 C   0  0  0  0  0  0  0  0  0  0  0  0
  -11.2258    4.3098  -24.1572 C   0  0  0  0  0  0  0  0  0  0  0  0
  -10.5511    3.0137  -23.8184 C   0  0  0  0  0  0  0  0  0  0  0  0
  -13.3977    5.6985  -24.4808 S   0  0  0  0  0  0  0  0  0  0  0  0
  -14.0724    6.9945  -24.8196 N   0  0  0  0  0  0  0  0  0  0  0  0
  -13.8620    5.8280  -23.0604 O   0  0  0  0  0  0  0  0  0  0  0  0
  -12.9333    5.5689  -25.9012 O   0  0  0  0  0  0  0  0  0  0  0  0
  -14.5753    7.5115  -24.0983 H   0  0  0  0  0  0  0  0  0  0  0  0
  -14.0284    7.3589  -25.7713 H   0  0  0  0  0  0  0  0  0  0  0  0
   -7.4696   -0.7768  -21.2129 C   0  0  0  0  0  0  0  0  0  0  0  0
   -7.4688   -1.2301  -19.7831 C   0  0  0  0  0  0  0  0  0  0  0  0
   -5.0188    0.0598  -21.0042 C   0  0  0  0  0  0  0  0  0  0  0  0
   -5.1203   -0.0156  -19.5095 O   0  0  0  0  0  0  0  0  0  0  0  0
   -6.1934   -0.3208  -21.8559 N   0  0  0  0  0  0  0  0  0  0  0  0
   -6.1268   -0.2713  -22.8369 H   0  0  0  0  0  0  0  0  0  0  0  0
   -3.7426    0.5157  -21.6472 C   0  0  0  0  0  0  0  0  0  0  0  0
   -2.6078    1.0056  -20.7972 O   0  0  0  0  0  0  0  0  0  0  0  0
   -2.4334    2.4753  -20.5535 S   0  0  0  0  0  0  0  0  0  0  0  0
   -1.9678    2.6546  -21.9681 O   0  0  0  0  0  0  0  0  0  0  0  0
   -2.8990    2.2961  -19.1390 O   0  0  0  0  0  0  0  0  0  0  0  0
   -2.2002    4.8957  -21.4688 C   0  0  0  0  0  0  0  0  0  0  0  0
   -2.2590    3.9452  -20.3099 N   0  0  0  0  0  0  0  0  0  0  0  0
   -2.1804    4.2982  -19.3562 H   0  0  0  0  0  0  0  0  0  0  0  0
 31 32  1  0  0  0
 32 28  1  0  0  0
 28 29  2  0  0  0
 28 30  2  0  0  0
 28 27  1  0  0  0
 27 26  1  0  0  0
 26 22  1  0  0  0
 22 23  2  0  0  0
 22 24  1  0  0  0
 24 20  1  0  0  0
 20 21  1  0  0  0
 20  1  1  0  0  0
  1  2  2  0  0  0
  2  3  1  0  0  0
  3  4  1  0  0  0
  3  5  2  0  0  0
  5  6  1  0  0  0
  6  8  1  0  0  0
  8  9  2  0  0  0
  9 10  1  0  0  0
 10 11  2  0  0  0
 11 14  1  0  0  0
 14 15  1  0  0  0
 14 16  2  0  0  0
 14 17  2  0  0  0
 11 12  1  0  0  0
 12 13  2  0  0  0
  6  7  2  0  0  0
  7  1  1  0  0  0
 13  8  1  0  0  0
 32 33  1  0  0  0
 24 25  1  0  0  0
 15 18  1  0  0  0
 15 19  1  0  0  0
M  END
> <minimizedAffinity>
-7.61628

> <CNNscore>
0.3062642217

> <CNNaffinity>
5.3294668198

> <CNN_VS>
1.6322250366

> <CNNaffinity_variance>
0.1239281520

$$$$



 33 34  0  0  0  0  0  0  0  0999 V2000
   -7.5454   -2.3722  -22.3335 C   0  0  0  0  0  0  0  0  0  0  0  0
   -7.8118   -3.5893  -23.1688 C   0  0  0  0  0  0  0  0  0  0  0  0
   -8.9991   -3.6250  -24.0848 C   0  0  0  0  0  0  0  0  0  0  0  0
   -9.2656   -4.8421  -24.9201 Cl  0  0  0  0  0  0  0  0  0  0  0  0
   -9.9199   -2.4437  -24.1655 C   0  0  0  0  0  0  0  0  0  0  0  0
   -9.6534   -1.2266  -23.3302 C   0  0  0  0  0  0  0  0  0  0  0  0
   -8.4662   -1.1909  -22.4142 C   0  0  0  0  0  0  0  0  0  0  0  0
  -10.5743   -0.0452  -23.4109 C   0  0  0  0  0  0  0  0  0  0  0  0
  -12.0595   -0.2465  -23.3515 C   0  0  0  0  0  0  0  0  0  0  0  0
  -12.9803    0.9349  -23.4322 C   0  0  0  0  0  0  0  0  0  0  0  0
  -12.4158    2.3176  -23.5722 C   0  0  0  0  0  0  0  0  0  0  0  0
  -10.9305    2.5188  -23.6315 C   0  0  0  0  0  0  0  0  0  0  0  0
  -10.0098    1.3374  -23.5508 C   0  0  0  0  0  0  0  0  0  0  0  0
  -13.3366    3.4989  -23.6529 S   0  0  0  0  0  0  0  0  0  0  0  0
  -14.2573    4.6803  -23.7335 N   0  0  0  0  0  0  0  0  0  0  0  0
  -13.8913    3.1589  -22.3014 O   0  0  0  0  0  0  0  0  0  0  0  0
  -12.7818    3.8390  -25.0044 O   0  0  0  0  0  0  0  0  0  0  0  0
  -14.8971    4.8817  -22.9651 H   0  0  0  0  0  0  0  0  0  0  0  0
  -14.2437    5.2822  -24.5569 H   0  0  0  0  0  0  0  0  0  0  0  0
   -6.3581   -2.3365  -21.4174 C   0  0  0  0  0  0  0  0  0  0  0  0
   -5.6708   -3.6124  -21.0304 C   0  0  0  0  0  0  0  0  0  0  0  0
   -5.6004   -0.8577  -19.4203 C   0  0  0  0  0  0  0  0  0  0  0  0
   -5.8426   -2.0019  -18.4811 O   0  0  0  0  0  0  0  0  0  0  0  0
   -5.8581   -1.0250  -20.8884 N   0  0  0  0  0  0  0  0  0  0  0  0
   -5.6991   -0.2740  -21.5049 H   0  0  0  0  0  0  0  0  0  0  0  0
   -5.1004    0.4539  -18.8913 C   0  0  0  0  0  0  0  0  0  0  0  0
   -4.5370    1.4767  -19.8329 O   0  0  0  0  0  0  0  0  0  0  0  0
   -3.0892    1.4218  -20.2211 S   0  0  0  0  0  0  0  0  0  0  0  0
   -2.7714    2.4559  -19.1821 O   0  0  0  0  0  0  0  0  0  0  0  0
   -3.4069    0.3876  -21.2600 O   0  0  0  0  0  0  0  0  0  0  0  0
   -0.6466    2.2554  -19.9228 C   0  0  0  0  0  0  0  0  0  0  0  0
   -1.6413    1.3669  -20.6092 N   0  0  0  0  0  0  0  0  0  0  0  0
   -1.3331    0.7254  -21.3399 H   0  0  0  0  0  0  0  0  0  0  0  0
 31 32  1  0  0  0
 32 28  1  0  0  0
 28 29  2  0  0  0
 28 30  2  0  0  0
 28 27  1  0  0  0
 27 26  1  0  0  0
 26 22  1  0  0  0
 22 23  2  0  0  0
 22 24  1  0  0  0
 24 20  1  0  0  0
 20 21  1  0  0  0
 20  1  1  0  0  0
  1  2  2  0  0  0
  2  3  1  0  0  0
  3  4  1  0  0  0
  3  5  2  0  0  0
  5  6  1  0  0  0
  6  8  1  0  0  0
  8  9  2  0  0  0
  9 10  1  0  0  0
 10 11  2  0  0  0
 11 14  1  0  0  0
 14 15  1  0  0  0
 14 16  2  0  0  0
 14 17  2  0  0  0
 11 12  1  0  0  0
 12 13  2  0  0  0
  6  7  2  0  0  0
  7  1  1  0  0  0
 13  8  1  0  0  0
 32 33  1  0  0  0
 24 25  1  0  0  0
 15 18  1  0  0  0
 15 19  1  0  0  0
M  END
> <minimizedAffinity>
-7.75443

> <CNNscore>
0.2985617518

> <CNNaffinity>
5.5436377525

> <CNN_VS>
1.6551182270

> <CNNaffinity_variance>
0.2746282518

$$$$



 33 34  0  0  0  0  0  0  0  0999 V2000
   -8.3198   -1.2575  -22.7918 C   0  0  0  0  0  0  0  0  0  0  0  0
   -8.9695   -2.5251  -23.2619 C   0  0  0  0  0  0  0  0  0  0  0  0
  -10.3578   -2.4907  -23.8289 C   0  0  0  0  0  0  0  0  0  0  0  0
  -11.0075   -3.7583  -24.2991 Cl  0  0  0  0  0  0  0  0  0  0  0  0
  -11.0963   -1.1887  -23.9259 C   0  0  0  0  0  0  0  0  0  0  0  0
  -10.4466    0.0789  -23.4558 C   0  0  0  0  0  0  0  0  0  0  0  0
   -9.0583    0.0445  -22.8887 C   0  0  0  0  0  0  0  0  0  0  0  0
  -11.1851    1.3809  -23.5527 C   0  0  0  0  0  0  0  0  0  0  0  0
  -12.5999    1.4789  -23.0643 C   0  0  0  0  0  0  0  0  0  0  0  0
  -13.3384    2.7809  -23.1612 C   0  0  0  0  0  0  0  0  0  0  0  0
  -12.6620    3.9850  -23.7466 C   0  0  0  0  0  0  0  0  0  0  0  0
  -11.2471    3.8870  -24.2351 C   0  0  0  0  0  0  0  0  0  0  0  0
  -10.5087    2.5850  -24.1382 C   0  0  0  0  0  0  0  0  0  0  0  0
  -13.4005    5.2870  -23.8436 S   0  0  0  0  0  0  0  0  0  0  0  0
  -14.1389    6.5890  -23.9406 N   0  0  0  0  0  0  0  0  0  0  0  0
  -14.2603    4.8858  -22.6819 O   0  0  0  0  0  0  0  0  0  0  0  0
  -12.5406    5.6881  -25.0054 O   0  0  0  0  0  0  0  0  0  0  0  0
  -14.8963    6.7954  -23.2894 H   0  0  0  0  0  0  0  0  0  0  0  0
  -13.8836    7.2679  -24.6577 H   0  0  0  0  0  0  0  0  0  0  0  0
   -6.9315   -1.2919  -22.2247 C   0  0  0  0  0  0  0  0  0  0  0  0
   -6.3381   -2.5931  -21.7726 C   0  0  0  0  0  0  0  0  0  0  0  0
   -5.2594    0.4155  -23.2438 C   0  0  0  0  0  0  0  0  0  0  0  0
   -5.1767   -0.4109  -24.4929 O   0  0  0  0  0  0  0  0  0  0  0  0
   -6.1368   -0.0250  -22.1097 N   0  0  0  0  0  0  0  0  0  0  0  0
   -6.1910    0.5174  -21.2899 H   0  0  0  0  0  0  0  0  0  0  0  0
   -4.4645    1.6825  -23.1288 C   0  0  0  0  0  0  0  0  0  0  0  0
   -3.2486    1.7279  -22.2517 O   0  0  0  0  0  0  0  0  0  0  0  0
   -3.3898    1.5810  -20.7656 S   0  0  0  0  0  0  0  0  0  0  0  0
   -4.7116    2.2879  -20.8214 O   0  0  0  0  0  0  0  0  0  0  0  0
   -2.0680    0.8741  -20.7099 O   0  0  0  0  0  0  0  0  0  0  0  0
   -4.6427    0.6033  -18.7102 C   0  0  0  0  0  0  0  0  0  0  0  0
   -3.5311    1.4342  -19.2795 N   0  0  0  0  0  0  0  0  0  0  0  0
   -2.8713    1.8993  -18.6560 H   0  0  0  0  0  0  0  0  0  0  0  0
 31 32  1  0  0  0
 32 28  1  0  0  0
 28 29  2  0  0  0
 28 30  2  0  0  0
 28 27  1  0  0  0
 27 26  1  0  0  0
 26 22  1  0  0  0
 22 23  2  0  0  0
 22 24  1  0  0  0
 24 20  1  0  0  0
 20 21  1  0  0  0
 20  1  1  0  0  0
  1  2  2  0  0  0
  2  3  1  0  0  0
  3  4  1  0  0  0
  3  5  2  0  0  0
  5  6  1  0  0  0
  6  8  1  0  0  0
  8  9  2  0  0  0
  9 10  1  0  0  0
 10 11  2  0  0  0
 11 14  1  0  0  0
 14 15  1  0  0  0
 14 16  2  0  0  0
 14 17  2  0  0  0
 11 12  1  0  0  0
 12 13  2  0  0  0
  6  7  2  0  0  0
  7  1  1  0  0  0
 13  8  1  0  0  0
 32 33  1  0  0  0
 24 25  1  0  0  0
 15 18  1  0  0  0
 15 19  1  0  0  0
M  END
> <minimizedAffinity>
-6.94079

> <CNNscore>
0.2748420537

> <CNNaffinity>
5.4087834358

> <CNN_VS>
1.4865611792

> <CNNaffinity_variance>
0.2578371763

$$$$
