


 42 47  0  0  0  0  0  0  0  0999 V2000
   -7.4751   -1.5155  -23.0052 N   0  0  0  0  0  0  0  0  0  0  0  0
   -7.6751   -0.0506  -23.2586 C   0  0  0  0  0  0  0  0  0  0  0  0
   -9.0623    0.5078  -23.3750 C   0  0  0  0  0  0  0  0  0  0  0  0
  -10.3824    1.2063  -23.5144 C   0  0  0  0  0  0  0  0  0  0  0  0
  -11.5723    0.9612  -23.4905 O   0  0  0  0  0  0  0  0  0  0  0  0
  -10.1134    2.6615  -23.7591 N   0  0  0  0  0  0  0  0  0  0  0  0
   -8.6269    2.8625  -23.7709 C   0  0  0  0  0  0  0  0  0  0  0  0
   -7.9774    1.5314  -23.5336 C   0  0  0  0  0  0  0  0  0  0  0  0
  -10.2497   -0.3986  -23.2380 C   0  0  0  0  0  0  0  0  0  0  0  0
  -11.6369    0.1598  -23.3545 C   0  0  0  0  0  0  0  0  0  0  0  0
  -12.8242   -0.7466  -23.2175 C   0  0  0  0  0  0  0  0  0  0  0  0
  -14.2116   -0.1882  -23.3339 Cl  0  0  0  0  0  0  0  0  0  0  0  0
  -12.6242   -2.2115  -22.9641 C   0  0  0  0  0  0  0  0  0  0  0  0
  -11.2369   -2.7699  -22.8477 C   0  0  0  0  0  0  0  0  0  0  0  0
  -10.0497   -1.8635  -22.9846 C   0  0  0  0  0  0  0  0  0  0  0  0
   -8.6623   -2.4219  -22.8682 C   0  0  0  0  0  0  0  0  0  0  0  0
   -8.4623   -3.8868  -22.6148 O   0  0  0  0  0  0  0  0  0  0  0  0
  -11.1489    3.7285  -23.9571 C   0  0  0  0  0  0  0  0  0  0  0  0
  -12.0431    4.1260  -22.8203 C   0  0  0  0  0  0  0  0  0  0  0  0
  -13.0787    5.1930  -23.0183 N   0  0  0  0  0  0  0  0  0  0  0  0
  -13.2200    5.8624  -24.3531 C   0  0  0  0  0  0  0  0  0  0  0  0
  -12.3258    5.4649  -25.4900 C   0  0  0  0  0  0  0  0  0  0  0  0
  -12.4671    6.1344  -26.8249 C   0  0  0  0  0  0  0  0  0  0  0  0
  -11.5729    5.7368  -27.9617 C   0  0  0  0  0  0  0  0  0  0  0  0
  -10.5373    4.6698  -27.7636 C   0  0  0  0  0  0  0  0  0  0  0  0
  -10.3960    4.0004  -26.4288 C   0  0  0  0  0  0  0  0  0  0  0  0
  -11.2902    4.3979  -25.2919 C   0  0  0  0  0  0  0  0  0  0  0  0
   -6.0877   -2.0739  -22.8888 C   0  0  0  0  0  0  0  0  0  0  0  0
   -5.4790   -5.7282  -21.4655 C   0  0  0  0  0  0  0  0  0  0  0  0
   -5.7589   -4.6088  -22.4240 N   0  0  0  0  0  0  0  0  0  0  0  0
   -5.8078   -3.1933  -21.9303 C   0  0  0  0  0  0  0  0  0  0  0  0
   -5.5767   -2.8970  -20.4780 O   0  0  0  0  0  0  0  0  0  0  0  0
   -5.9105   -4.8032  -23.3771 H   0  0  0  0  0  0  0  0  0  0  0  0
   -6.5019    1.2698  -23.4666 C   0  0  0  0  0  0  0  0  0  0  0  0
   -5.5609    2.3741  -23.0861 N   0  0  0  0  0  0  0  0  0  0  0  0
   -5.5090    3.1883  -23.6371 H   0  0  0  0  0  0  0  0  0  0  0  0
   -4.6990    2.2381  -21.8660 C   0  0  0  0  0  0  0  0  0  0  0  0
   -5.0468    1.2307  -20.8105 C   0  0  0  0  0  0  0  0  0  0  0  0
   -4.1849    1.0946  -19.5905 C   0  0  0  0  0  0  0  0  0  0  0  0
   -2.9751    1.9660  -19.4259 N   0  0  0  0  0  0  0  0  0  0  0  0
   -2.6272    2.9734  -20.4813 C   0  0  0  0  0  0  0  0  0  0  0  0
   -3.4892    3.1095  -21.7014 N   0  0  0  0  0  0  0  0  0  0  0  0
 29 30  1  0  0  0
 30 31  1  0  0  0
 31 32  2  0  0  0
 31 28  1  0  0  0
 28  1  1  0  0  0
  1  2  1  0  0  0
  3  2  1  0  0  0
  3  4  1  0  0  0
  4  5  2  0  0  0
  4  6  1  0  0  0
  6 18  1  0  0  0
 18 19  2  0  0  0
 19 20  1  0  0  0
 20 21  2  0  0  0
 21 22  1  0  0  0
 22 23  2  0  0  0
 23 24  1  0  0  0
 24 25  2  0  0  0
 25 26  1  0  0  0
 26 27  2  0  0  0
  6  7  1  0  0  0
  7  8  1  0  0  0
  8 34  1  0  0  0
 34 35  1  0  0  0
 35 37  1  0  0  0
 37 38  2  0  0  0
 38 39  1  0  0  0
 39 40  2  0  0  0
 40 41  1  0  0  0
 41 42  2  0  0  0
  3  9  1  0  0  0
  9 10  2  0  0  0
 10 11  1  0  0  0
 11 12  1  0  0  0
 11 13  2  0  0  0
 13 14  1  0  0  0
 14 15  2  0  0  0
 15 16  1  0  0  0
 16 17  2  0  0  0
 16  1  1  0  0  0
  8  3  1  0  0  0
 42 37  1  0  0  0
 15  9  1  0  0  0
 27 18  1  0  0  0
 27 22  1  0  0  0
 30 33  1  0  0  0
 35 36  1  0  0  0
M  END
> <minimizedAffinity>
-7.97955

> <CNNscore>
0.4864744544

> <CNNaffinity>
6.9402756691

> <CNN_VS>
3.3762667179

> <CNNaffinity_variance>
0.0888620913

$$$$



 42 47  0  0  0  0  0  0  0  0999 V2000
   -5.3968   -6.0891  -23.4704 N   0  0  0  0  0  0  0  0  0  0  0  0
   -5.9863   -4.8198  -22.9305 C   0  0  0  0  0  0  0  0  0  0  0  0
   -7.0404   -4.0914  -23.7104 C   0  0  0  0  0  0  0  0  0  0  0  0
   -8.0964   -3.2577  -24.3737 C   0  0  0  0  0  0  0  0  0  0  0  0
   -8.7716   -3.2419  -25.3837 O   0  0  0  0  0  0  0  0  0  0  0  0
   -8.3861   -2.0841  -23.4857 N   0  0  0  0  0  0  0  0  0  0  0  0
   -7.5093   -2.1924  -22.2735 C   0  0  0  0  0  0  0  0  0  0  0  0
   -6.6776   -3.4330  -22.4124 C   0  0  0  0  0  0  0  0  0  0  0  0
   -7.5051   -4.6322  -25.0301 C   0  0  0  0  0  0  0  0  0  0  0  0
   -8.5592   -3.9038  -25.8100 C   0  0  0  0  0  0  0  0  0  0  0  0
   -9.0238   -4.4446  -27.1297 C   0  0  0  0  0  0  0  0  0  0  0  0
  -10.0779   -3.7162  -27.9096 Cl  0  0  0  0  0  0  0  0  0  0  0  0
   -8.4342   -5.7139  -27.6695 C   0  0  0  0  0  0  0  0  0  0  0  0
   -7.3801   -6.4423  -26.8897 C   0  0  0  0  0  0  0  0  0  0  0  0
   -6.9155   -5.9015  -25.5700 C   0  0  0  0  0  0  0  0  0  0  0  0
   -5.8613   -6.6299  -24.7901 C   0  0  0  0  0  0  0  0  0  0  0  0
   -5.2718   -7.8991  -25.3300 O   0  0  0  0  0  0  0  0  0  0  0  0
   -9.3785   -0.9936  -23.7614 C   0  0  0  0  0  0  0  0  0  0  0  0
   -8.9278    0.2868  -24.3999 C   0  0  0  0  0  0  0  0  0  0  0  0
   -9.9202    1.3773  -24.6757 N   0  0  0  0  0  0  0  0  0  0  0  0
  -11.3632    1.1874  -24.3130 C   0  0  0  0  0  0  0  0  0  0  0  0
  -11.8139   -0.0930  -23.6745 C   0  0  0  0  0  0  0  0  0  0  0  0
  -13.2570   -0.2829  -23.3119 C   0  0  0  0  0  0  0  0  0  0  0  0
  -13.7076   -1.5632  -22.6734 C   0  0  0  0  0  0  0  0  0  0  0  0
  -12.7152   -2.6537  -22.3976 C   0  0  0  0  0  0  0  0  0  0  0  0
  -11.2722   -2.4638  -22.7603 C   0  0  0  0  0  0  0  0  0  0  0  0
  -10.8215   -1.1835  -23.3988 C   0  0  0  0  0  0  0  0  0  0  0  0
   -4.3426   -6.8175  -22.6905 C   0  0  0  0  0  0  0  0  0  0  0  0
   -0.8039   -8.4733  -23.3875 C   0  0  0  0  0  0  0  0  0  0  0  0
   -2.1375   -8.1896  -22.7623 N   0  0  0  0  0  0  0  0  0  0  0  0
   -3.0089   -7.1013  -23.3157 C   0  0  0  0  0  0  0  0  0  0  0  0
   -2.5467   -6.2967  -24.4944 O   0  0  0  0  0  0  0  0  0  0  0  0
   -2.4409   -8.7176  -21.9888 H   0  0  0  0  0  0  0  0  0  0  0  0
   -5.6615   -3.9282  -21.4263 C   0  0  0  0  0  0  0  0  0  0  0  0
   -5.6974   -3.4463  -20.0064 N   0  0  0  0  0  0  0  0  0  0  0  0
   -5.9466   -4.0654  -19.2826 H   0  0  0  0  0  0  0  0  0  0  0  0
   -5.3535   -2.0211  -19.6890 C   0  0  0  0  0  0  0  0  0  0  0  0
   -4.6670   -1.1690  -20.7149 C   0  0  0  0  0  0  0  0  0  0  0  0
   -4.3231    0.2561  -20.3977 C   0  0  0  0  0  0  0  0  0  0  0  0
   -4.6657    0.8292  -19.0544 N   0  0  0  0  0  0  0  0  0  0  0  0
   -5.3522   -0.0230  -18.0285 C   0  0  0  0  0  0  0  0  0  0  0  0
   -5.6961   -1.4481  -18.3458 N   0  0  0  0  0  0  0  0  0  0  0  0
 29 30  1  0  0  0
 30 31  1  0  0  0
 31 32  2  0  0  0
 31 28  1  0  0  0
 28  1  1  0  0  0
  1  2  1  0  0  0
  3  2  1  0  0  0
  3  4  1  0  0  0
  4  5  2  0  0  0
  4  6  1  0  0  0
  6 18  1  0  0  0
 18 19  2  0  0  0
 19 20  1  0  0  0
 20 21  2  0  0  0
 21 22  1  0  0  0
 22 23  2  0  0  0
 23 24  1  0  0  0
 24 25  2  0  0  0
 25 26  1  0  0  0
 26 27  2  0  0  0
  6  7  1  0  0  0
  7  8  1  0  0  0
  8 34  1  0  0  0
 34 35  1  0  0  0
 35 37  1  0  0  0
 37 38  2  0  0  0
 38 39  1  0  0  0
 39 40  2  0  0  0
 40 41  1  0  0  0
 41 42  2  0  0  0
  3  9  1  0  0  0
  9 10  2  0  0  0
 10 11  1  0  0  0
 11 12  1  0  0  0
 11 13  2  0  0  0
 13 14  1  0  0  0
 14 15  2  0  0  0
 15 16  1  0  0  0
 16 17  2  0  0  0
 16  1  1  0  0  0
  8  3  1  0  0  0
 42 37  1  0  0  0
 15  9  1  0  0  0
 27 18  1  0  0  0
 27 22  1  0  0  0
 30 33  1  0  0  0
 35 36  1  0  0  0
M  END
> <minimizedAffinity>
-8.44369

> <CNNscore>
0.4528889060

> <CNNaffinity>
7.0036458969

> <CNN_VS>
3.1718735695

> <CNNaffinity_variance>
0.1415191442

$$$$



 42 47  0  0  0  0  0  0  0  0999 V2000
   -6.5671   -1.3926  -22.2380 N   0  0  0  0  0  0  0  0  0  0  0  0
   -7.7182   -0.8275  -23.0163 C   0  0  0  0  0  0  0  0  0  0  0  0
   -7.7954    0.6477  -23.2764 C   0  0  0  0  0  0  0  0  0  0  0  0
   -8.0065    2.0940  -23.6133 C   0  0  0  0  0  0  0  0  0  0  0  0
   -7.4766    3.1750  -23.4490 O   0  0  0  0  0  0  0  0  0  0  0  0
   -9.2791    2.2059  -24.3995 N   0  0  0  0  0  0  0  0  0  0  0  0
   -9.8545    0.8287  -24.5485 C   0  0  0  0  0  0  0  0  0  0  0  0
   -8.9375   -0.1343  -23.8544 C   0  0  0  0  0  0  0  0  0  0  0  0
   -6.7216    1.5579  -22.7582 C   0  0  0  0  0  0  0  0  0  0  0  0
   -6.7988    3.0331  -23.0183 C   0  0  0  0  0  0  0  0  0  0  0  0
   -5.7250    3.9433  -22.5001 C   0  0  0  0  0  0  0  0  0  0  0  0
   -5.8022    5.4186  -22.7602 Cl  0  0  0  0  0  0  0  0  0  0  0  0
   -4.5739    3.3782  -21.7219 C   0  0  0  0  0  0  0  0  0  0  0  0
   -4.4967    1.9029  -21.4618 C   0  0  0  0  0  0  0  0  0  0  0  0
   -5.5705    0.9928  -21.9799 C   0  0  0  0  0  0  0  0  0  0  0  0
   -5.4933   -0.4825  -21.7199 C   0  0  0  0  0  0  0  0  0  0  0  0
   -4.3422   -1.0476  -20.9416 O   0  0  0  0  0  0  0  0  0  0  0  0
   -9.8721    3.4726  -24.9416 C   0  0  0  0  0  0  0  0  0  0  0  0
   -9.2072    4.1837  -26.0828 C   0  0  0  0  0  0  0  0  0  0  0  0
   -9.8002    5.4504  -26.6248 N   0  0  0  0  0  0  0  0  0  0  0  0
  -11.0581    6.0060  -26.0257 C   0  0  0  0  0  0  0  0  0  0  0  0
  -11.7230    5.2949  -24.8845 C   0  0  0  0  0  0  0  0  0  0  0  0
  -12.9810    5.8505  -24.2853 C   0  0  0  0  0  0  0  0  0  0  0  0
  -13.6458    5.1393  -23.1441 C   0  0  0  0  0  0  0  0  0  0  0  0
  -13.0528    3.8726  -22.6021 C   0  0  0  0  0  0  0  0  0  0  0  0
  -11.7949    3.3171  -23.2013 C   0  0  0  0  0  0  0  0  0  0  0  0
  -11.1300    4.0282  -24.3424 C   0  0  0  0  0  0  0  0  0  0  0  0
   -6.4899   -2.8679  -21.9779 C   0  0  0  0  0  0  0  0  0  0  0  0
   -5.8923   -4.6294  -25.4836 C   0  0  0  0  0  0  0  0  0  0  0  0
   -5.7708   -3.6599  -24.3456 N   0  0  0  0  0  0  0  0  0  0  0  0
   -6.6114   -3.8375  -23.1160 C   0  0  0  0  0  0  0  0  0  0  0  0
   -7.5735   -4.9847  -23.0245 O   0  0  0  0  0  0  0  0  0  0  0  0
   -5.1394   -2.9069  -24.4056 H   0  0  0  0  0  0  0  0  0  0  0  0
   -9.1291   -1.6188  -23.7556 C   0  0  0  0  0  0  0  0  0  0  0  0
  -10.0383   -2.1896  -22.7081 N   0  0  0  0  0  0  0  0  0  0  0  0
   -9.6692   -2.7525  -21.9896 H   0  0  0  0  0  0  0  0  0  0  0  0
  -11.5099   -1.9031  -22.7553 C   0  0  0  0  0  0  0  0  0  0  0  0
  -12.0134   -0.6787  -23.4605 C   0  0  0  0  0  0  0  0  0  0  0  0
  -13.4849   -0.3921  -23.5076 C   0  0  0  0  0  0  0  0  0  0  0  0
  -14.4531   -1.3300  -22.8495 N   0  0  0  0  0  0  0  0  0  0  0  0
  -13.9497   -2.5544  -22.1443 C   0  0  0  0  0  0  0  0  0  0  0  0
  -12.4781   -2.8409  -22.0972 N   0  0  0  0  0  0  0  0  0  0  0  0
 29 30  1  0  0  0
 30 31  1  0  0  0
 31 32  2  0  0  0
 31 28  1  0  0  0
 28  1  1  0  0  0
  1  2  1  0  0  0
  3  2  1  0  0  0
  3  4  1  0  0  0
  4  5  2  0  0  0
  4  6  1  0  0  0
  6 18  1  0  0  0
 18 19  2  0  0  0
 19 20  1  0  0  0
 20 21  2  0  0  0
 21 22  1  0  0  0
 22 23  2  0  0  0
 23 24  1  0  0  0
 24 25  2  0  0  0
 25 26  1  0  0  0
 26 27  2  0  0  0
  6  7  1  0  0  0
  7  8  1  0  0  0
  8 34  1  0  0  0
 34 35  1  0  0  0
 35 37  1  0  0  0
 37 38  2  0  0  0
 38 39  1  0  0  0
 39 40  2  0  0  0
 40 41  1  0  0  0
 41 42  2  0  0  0
  3  9  1  0  0  0
  9 10  2  0  0  0
 10 11  1  0  0  0
 11 12  1  0  0  0
 11 13  2  0  0  0
 13 14  1  0  0  0
 14 15  2  0  0  0
 15 16  1  0  0  0
 16 17  2  0  0  0
 16  1  1  0  0  0
  8  3  1  0  0  0
 42 37  1  0  0  0
 15  9  1  0  0  0
 27 18  1  0  0  0
 27 22  1  0  0  0
 30 33  1  0  0  0
 35 36  1  0  0  0
M  END
> <minimizedAffinity>
-7.95528

> <CNNscore>
0.1865166873

> <CNNaffinity>
6.7196779251

> <CNN_VS>
1.2533320189

> <CNNaffinity_variance>
0.1791332364

$$$$



 42 47  0  0  0  0  0  0  0  0999 V2000
   -9.1817    2.7293  -24.6414 N   0  0  0  0  0  0  0  0  0  0  0  0
   -8.2845    1.5340  -24.7691 C   0  0  0  0  0  0  0  0  0  0  0  0
   -8.7993    0.1691  -24.4201 C   0  0  0  0  0  0  0  0  0  0  0  0
   -9.1720   -1.2503  -24.1096 C   0  0  0  0  0  0  0  0  0  0  0  0
  -10.1216   -1.8988  -23.7171 O   0  0  0  0  0  0  0  0  0  0  0  0
   -7.9749   -2.1133  -24.3783 N   0  0  0  0  0  0  0  0  0  0  0  0
   -6.8624   -1.2273  -24.8550 C   0  0  0  0  0  0  0  0  0  0  0  0
   -7.3719    0.1833  -24.8809 C   0  0  0  0  0  0  0  0  0  0  0  0
  -10.2115   -0.0007  -23.9434 C   0  0  0  0  0  0  0  0  0  0  0  0
  -10.7263   -1.3656  -23.5944 C   0  0  0  0  0  0  0  0  0  0  0  0
  -12.1384   -1.5353  -23.1178 C   0  0  0  0  0  0  0  0  0  0  0  0
  -12.6533   -2.9003  -22.7688 Cl  0  0  0  0  0  0  0  0  0  0  0  0
  -13.0356   -0.3400  -22.9900 C   0  0  0  0  0  0  0  0  0  0  0  0
  -12.5207    1.0249  -23.3390 C   0  0  0  0  0  0  0  0  0  0  0  0
  -11.1087    1.1946  -23.8157 C   0  0  0  0  0  0  0  0  0  0  0  0
  -10.5938    2.5596  -24.1647 C   0  0  0  0  0  0  0  0  0  0  0  0
  -11.4910    3.7549  -24.0370 O   0  0  0  0  0  0  0  0  0  0  0  0
   -7.9030   -3.6011  -24.2014 C   0  0  0  0  0  0  0  0  0  0  0  0
   -7.3284   -4.1799  -22.9425 C   0  0  0  0  0  0  0  0  0  0  0  0
   -7.2565   -5.6677  -22.7656 N   0  0  0  0  0  0  0  0  0  0  0  0
   -7.7592   -6.5767  -23.8477 C   0  0  0  0  0  0  0  0  0  0  0  0
   -8.3337   -5.9980  -25.1067 C   0  0  0  0  0  0  0  0  0  0  0  0
   -8.8364   -6.9071  -26.1888 C   0  0  0  0  0  0  0  0  0  0  0  0
   -9.4109   -6.3283  -27.4477 C   0  0  0  0  0  0  0  0  0  0  0  0
   -9.4828   -4.8405  -27.6246 C   0  0  0  0  0  0  0  0  0  0  0  0
   -8.9802   -3.9314  -26.5425 C   0  0  0  0  0  0  0  0  0  0  0  0
   -8.4056   -4.5102  -25.2835 C   0  0  0  0  0  0  0  0  0  0  0  0
   -8.6668    4.0943  -24.9904 C   0  0  0  0  0  0  0  0  0  0  0  0
   -6.6053    6.0073  -22.1903 C   0  0  0  0  0  0  0  0  0  0  0  0
   -6.9538    5.0362  -23.2791 N   0  0  0  0  0  0  0  0  0  0  0  0
   -8.3183    5.0653  -23.9016 C   0  0  0  0  0  0  0  0  0  0  0  0
   -9.3342    6.0656  -23.4352 O   0  0  0  0  0  0  0  0  0  0  0  0
   -6.2871    4.3797  -23.5852 H   0  0  0  0  0  0  0  0  0  0  0  0
   -6.5911    1.3953  -25.2948 C   0  0  0  0  0  0  0  0  0  0  0  0
   -5.6798    2.0714  -24.3139 N   0  0  0  0  0  0  0  0  0  0  0  0
   -5.3281    2.9703  -24.5076 H   0  0  0  0  0  0  0  0  0  0  0  0
   -5.3042    1.3780  -23.0379 C   0  0  0  0  0  0  0  0  0  0  0  0
   -5.3481    2.1246  -21.7376 C   0  0  0  0  0  0  0  0  0  0  0  0
   -4.9726    1.4313  -20.4617 C   0  0  0  0  0  0  0  0  0  0  0  0
   -4.5531   -0.0087  -20.4859 N   0  0  0  0  0  0  0  0  0  0  0  0
   -4.5093   -0.7553  -21.7861 C   0  0  0  0  0  0  0  0  0  0  0  0
   -4.8848   -0.0619  -23.0621 N   0  0  0  0  0  0  0  0  0  0  0  0
 29 30  1  0  0  0
 30 31  1  0  0  0
 31 32  2  0  0  0
 31 28  1  0  0  0
 28  1  1  0  0  0
  1  2  1  0  0  0
  3  2  1  0  0  0
  3  4  1  0  0  0
  4  5  2  0  0  0
  4  6  1  0  0  0
  6 18  1  0  0  0
 18 19  2  0  0  0
 19 20  1  0  0  0
 20 21  2  0  0  0
 21 22  1  0  0  0
 22 23  2  0  0  0
 23 24  1  0  0  0
 24 25  2  0  0  0
 25 26  1  0  0  0
 26 27  2  0  0  0
  6  7  1  0  0  0
  7  8  1  0  0  0
  8 34  1  0  0  0
 34 35  1  0  0  0
 35 37  1  0  0  0
 37 38  2  0  0  0
 38 39  1  0  0  0
 39 40  2  0  0  0
 40 41  1  0  0  0
 41 42  2  0  0  0
  3  9  1  0  0  0
  9 10  2  0  0  0
 10 11  1  0  0  0
 11 12  1  0  0  0
 11 13  2  0  0  0
 13 14  1  0  0  0
 14 15  2  0  0  0
 15 16  1  0  0  0
 16 17  2  0  0  0
 16  1  1  0  0  0
  8  3  1  0  0  0
 42 37  1  0  0  0
 15  9  1  0  0  0
 27 18  1  0  0  0
 27 22  1  0  0  0
 30 33  1  0  0  0
 35 36  1  0  0  0
M  END
> <minimizedAffinity>
-7.62773

> <CNNscore>
0.1801849306

> <CNNaffinity>
6.5384025574

> <CNN_VS>
1.1781215668

> <CNNaffinity_variance>
0.1570329964

$$$$



 42 47  0  0  0  0  0  0  0  0999 V2000
   -7.0980   -3.4725  -22.4860 N   0  0  0  0  0  0  0  0  0  0  0  0
   -7.8953   -2.5075  -23.3126 C   0  0  0  0  0  0  0  0  0  0  0  0
   -7.5949   -1.0393  -23.2493 C   0  0  0  0  0  0  0  0  0  0  0  0
   -7.4105    0.4488  -23.2900 C   0  0  0  0  0  0  0  0  0  0  0  0
   -6.7133    1.3141  -22.7986 O   0  0  0  0  0  0  0  0  0  0  0  0
   -8.4182    1.0148  -24.2462 N   0  0  0  0  0  0  0  0  0  0  0  0
   -9.2253   -0.1235  -24.7966 C   0  0  0  0  0  0  0  0  0  0  0  0
   -8.7165   -1.3929  -24.1805 C   0  0  0  0  0  0  0  0  0  0  0  0
   -6.4973   -0.5359  -22.3594 C   0  0  0  0  0  0  0  0  0  0  0  0
   -6.1969    0.9323  -22.2961 C   0  0  0  0  0  0  0  0  0  0  0  0
   -5.0994    1.4355  -21.4061 C   0  0  0  0  0  0  0  0  0  0  0  0
   -4.7989    2.9038  -21.3428 Cl  0  0  0  0  0  0  0  0  0  0  0  0
   -4.3021    0.4706  -20.5795 C   0  0  0  0  0  0  0  0  0  0  0  0
   -4.6025   -0.9976  -20.6428 C   0  0  0  0  0  0  0  0  0  0  0  0
   -5.7001   -1.5009  -21.5327 C   0  0  0  0  0  0  0  0  0  0  0  0
   -6.0005   -2.9692  -21.5961 C   0  0  0  0  0  0  0  0  0  0  0  0
   -5.2033   -3.9342  -20.7695 O   0  0  0  0  0  0  0  0  0  0  0  0
   -8.5887    2.4645  -24.5914 C   0  0  0  0  0  0  0  0  0  0  0  0
   -7.5019    3.1939  -25.3242 C   0  0  0  0  0  0  0  0  0  0  0  0
   -7.6724    4.6436  -25.6694 N   0  0  0  0  0  0  0  0  0  0  0  0
   -8.9297    5.3640  -25.2819 C   0  0  0  0  0  0  0  0  0  0  0  0
  -10.0165    4.6346  -24.5491 C   0  0  0  0  0  0  0  0  0  0  0  0
  -11.2739    5.3550  -24.1616 C   0  0  0  0  0  0  0  0  0  0  0  0
  -12.3606    4.6256  -23.4289 C   0  0  0  0  0  0  0  0  0  0  0  0
  -12.1901    3.1759  -23.0836 C   0  0  0  0  0  0  0  0  0  0  0  0
  -10.9328    2.4555  -23.4712 C   0  0  0  0  0  0  0  0  0  0  0  0
   -9.8460    3.1849  -24.2039 C   0  0  0  0  0  0  0  0  0  0  0  0
   -7.3985   -4.9408  -22.5494 C   0  0  0  0  0  0  0  0  0  0  0  0
   -4.0246   -6.8631  -23.3689 C   0  0  0  0  0  0  0  0  0  0  0  0
   -5.1418   -5.8650  -23.4454 N   0  0  0  0  0  0  0  0  0  0  0  0
   -6.2813   -5.9388  -22.4729 C   0  0  0  0  0  0  0  0  0  0  0  0
   -6.3038   -7.0107  -21.4237 O   0  0  0  0  0  0  0  0  0  0  0  0
   -5.1270   -5.1615  -24.1340 H   0  0  0  0  0  0  0  0  0  0  0  0
   -9.2377   -2.7737  -24.4485 C   0  0  0  0  0  0  0  0  0  0  0  0
  -10.3248   -3.3453  -23.5874 N   0  0  0  0  0  0  0  0  0  0  0  0
  -10.2080   -4.2288  -23.1690 H   0  0  0  0  0  0  0  0  0  0  0  0
  -11.5897   -2.5708  -23.3636 C   0  0  0  0  0  0  0  0  0  0  0  0
  -11.8310   -1.2952  -24.1150 C   0  0  0  0  0  0  0  0  0  0  0  0
  -13.0959   -0.5207  -23.8912 C   0  0  0  0  0  0  0  0  0  0  0  0
  -14.1197   -1.0219  -22.9161 N   0  0  0  0  0  0  0  0  0  0  0  0
  -13.8785   -2.2975  -22.1648 C   0  0  0  0  0  0  0  0  0  0  0  0
  -12.6135   -3.0720  -22.3886 N   0  0  0  0  0  0  0  0  0  0  0  0
 29 30  1  0  0  0
 30 31  1  0  0  0
 31 32  2  0  0  0
 31 28  1  0  0  0
 28  1  1  0  0  0
  1  2  1  0  0  0
  3  2  1  0  0  0
  3  4  1  0  0  0
  4  5  2  0  0  0
  4  6  1  0  0  0
  6 18  1  0  0  0
 18 19  2  0  0  0
 19 20  1  0  0  0
 20 21  2  0  0  0
 21 22  1  0  0  0
 22 23  2  0  0  0
 23 24  1  0  0  0
 24 25  2  0  0  0
 25 26  1  0  0  0
 26 27  2  0  0  0
  6  7  1  0  0  0
  7  8  1  0  0  0
  8 34  1  0  0  0
 34 35  1  0  0  0
 35 37  1  0  0  0
 37 38  2  0  0  0
 38 39  1  0  0  0
 39 40  2  0  0  0
 40 41  1  0  0  0
 41 42  2  0  0  0
  3  9  1  0  0  0
  9 10  2  0  0  0
 10 11  1  0  0  0
 11 12  1  0  0  0
 11 13  2  0  0  0
 13 14  1  0  0  0
 14 15  2  0  0  0
 15 16  1  0  0  0
 16 17  2  0  0  0
 16  1  1  0  0  0
  8  3  1  0  0  0
 42 37  1  0  0  0
 15  9  1  0  0  0
 27 18  1  0  0  0
 27 22  1  0  0  0
 30 33  1  0  0  0
 35 36  1  0  0  0
M  END
> <minimizedAffinity>
-8.16364

> <CNNscore>
0.1762371808

> <CNNaffinity>
6.7403998375

> <CNN_VS>
1.1879090071

> <CNNaffinity_variance>
0.1567282379

$$$$



 42 47  0  0  0  0  0  0  0  0999 V2000
   -6.5319   -0.4276  -22.3953 N   0  0  0  0  0  0  0  0  0  0  0  0
   -6.7900    0.8619  -23.1169 C   0  0  0  0  0  0  0  0  0  0  0  0
   -8.1648    1.1717  -23.6307 C   0  0  0  0  0  0  0  0  0  0  0  0
   -9.4802    1.6167  -24.1978 C   0  0  0  0  0  0  0  0  0  0  0  0
  -10.6280    1.2314  -24.2997 O   0  0  0  0  0  0  0  0  0  0  0  0
   -9.2811    2.9625  -24.8296 N   0  0  0  0  0  0  0  0  0  0  0  0
   -7.8426    3.3493  -24.6530 C   0  0  0  0  0  0  0  0  0  0  0  0
   -7.1527    2.2424  -23.9120 C   0  0  0  0  0  0  0  0  0  0  0  0
   -9.2816    0.1920  -23.4228 C   0  0  0  0  0  0  0  0  0  0  0  0
  -10.6563    0.5018  -23.9366 C   0  0  0  0  0  0  0  0  0  0  0  0
  -11.7730   -0.4778  -23.7287 C   0  0  0  0  0  0  0  0  0  0  0  0
  -13.1479   -0.1680  -24.2425 Cl  0  0  0  0  0  0  0  0  0  0  0  0
  -11.5150   -1.7672  -23.0070 C   0  0  0  0  0  0  0  0  0  0  0  0
  -10.1402   -2.0770  -22.4932 C   0  0  0  0  0  0  0  0  0  0  0  0
   -9.0235   -1.0974  -22.7011 C   0  0  0  0  0  0  0  0  0  0  0  0
   -7.6487   -1.4072  -22.1874 C   0  0  0  0  0  0  0  0  0  0  0  0
   -7.3906   -2.6966  -21.4657 O   0  0  0  0  0  0  0  0  0  0  0  0
  -10.3354    3.7784  -25.5172 C   0  0  0  0  0  0  0  0  0  0  0  0
  -10.2681    3.9946  -27.0000 C   0  0  0  0  0  0  0  0  0  0  0  0
  -11.3224    4.8104  -27.6877 N   0  0  0  0  0  0  0  0  0  0  0  0
  -12.4440    5.4100  -26.8925 C   0  0  0  0  0  0  0  0  0  0  0  0
  -12.5114    5.1938  -25.4096 C   0  0  0  0  0  0  0  0  0  0  0  0
  -13.6331    5.7935  -24.6144 C   0  0  0  0  0  0  0  0  0  0  0  0
  -13.7003    5.5772  -23.1316 C   0  0  0  0  0  0  0  0  0  0  0  0
  -12.6460    4.7614  -22.4440 C   0  0  0  0  0  0  0  0  0  0  0  0
  -11.5244    4.1618  -23.2392 C   0  0  0  0  0  0  0  0  0  0  0  0
  -11.4571    4.3780  -24.7220 C   0  0  0  0  0  0  0  0  0  0  0  0
   -5.1571   -0.7373  -21.8815 C   0  0  0  0  0  0  0  0  0  0  0  0
   -5.1272    0.1162  -18.0058 C   0  0  0  0  0  0  0  0  0  0  0  0
   -5.5687   -0.4180  -19.3362 N   0  0  0  0  0  0  0  0  0  0  0  0
   -4.7156   -0.2032  -20.5511 C   0  0  0  0  0  0  0  0  0  0  0  0
   -3.4210    0.5457  -20.4358 O   0  0  0  0  0  0  0  0  0  0  0  0
   -6.4183   -0.9095  -19.4119 H   0  0  0  0  0  0  0  0  0  0  0  0
   -5.7049    2.2118  -23.5211 C   0  0  0  0  0  0  0  0  0  0  0  0
   -4.6473    2.5341  -24.5347 N   0  0  0  0  0  0  0  0  0  0  0  0
   -4.5557    3.4533  -24.8752 H   0  0  0  0  0  0  0  0  0  0  0  0
   -3.7292    1.4560  -25.0296 C   0  0  0  0  0  0  0  0  0  0  0  0
   -2.2614    1.7289  -25.1743 C   0  0  0  0  0  0  0  0  0  0  0  0
   -1.3433    0.6509  -25.6691 C   0  0  0  0  0  0  0  0  0  0  0  0
   -1.8931   -0.7002  -26.0193 N   0  0  0  0  0  0  0  0  0  0  0  0
   -3.3609   -0.9730  -25.8746 C   0  0  0  0  0  0  0  0  0  0  0  0
   -4.2790    0.1051  -25.3797 N   0  0  0  0  0  0  0  0  0  0  0  0
 29 30  1  0  0  0
 30 31  1  0  0  0
 31 32  2  0  0  0
 31 28  1  0  0  0
 28  1  1  0  0  0
  1  2  1  0  0  0
  3  2  1  0  0  0
  3  4  1  0  0  0
  4  5  2  0  0  0
  4  6  1  0  0  0
  6 18  1  0  0  0
 18 19  2  0  0  0
 19 20  1  0  0  0
 20 21  2  0  0  0
 21 22  1  0  0  0
 22 23  2  0  0  0
 23 24  1  0  0  0
 24 25  2  0  0  0
 25 26  1  0  0  0
 26 27  2  0  0  0
  6  7  1  0  0  0
  7  8  1  0  0  0
  8 34  1  0  0  0
 34 35  1  0  0  0
 35 37  1  0  0  0
 37 38  2  0  0  0
 38 39  1  0  0  0
 39 40  2  0  0  0
 40 41  1  0  0  0
 41 42  2  0  0  0
  3  9  1  0  0  0
  9 10  2  0  0  0
 10 11  1  0  0  0
 11 12  1  0  0  0
 11 13  2  0  0  0
 13 14  1  0  0  0
 14 15  2  0  0  0
 15 16  1  0  0  0
 16 17  2  0  0  0
 16  1  1  0  0  0
  8  3  1  0  0  0
 42 37  1  0  0  0
 15  9  1  0  0  0
 27 18  1  0  0  0
 27 22  1  0  0  0
 30 33  1  0  0  0
 35 36  1  0  0  0
M  END
> <minimizedAffinity>
-7.53844

> <CNNscore>
0.1469784379

> <CNNaffinity>
6.2749695778

> <CNN_VS>
0.9222851992

> <CNNaffinity_variance>
0.1298753321

$$$$



 42 47  0  0  0  0  0  0  0  0999 V2000
   -9.6297   -2.1988  -23.6215 N   0  0  0  0  0  0  0  0  0  0  0  0
   -8.2627   -2.2699  -23.0080 C   0  0  0  0  0  0  0  0  0  0  0  0
   -7.5179   -1.0080  -22.6874 C   0  0  0  0  0  0  0  0  0  0  0  0
   -6.6571    0.1623  -22.3139 C   0  0  0  0  0  0  0  0  0  0  0  0
   -6.6771    1.3770  -22.3356 O   0  0  0  0  0  0  0  0  0  0  0  0
   -5.3789   -0.3683  -21.7354 N   0  0  0  0  0  0  0  0  0  0  0  0
   -5.4497   -1.8666  -21.7514 C   0  0  0  0  0  0  0  0  0  0  0  0
   -6.7717   -2.2619  -22.3398 C   0  0  0  0  0  0  0  0  0  0  0  0
   -8.1401    0.3252  -22.9803 C   0  0  0  0  0  0  0  0  0  0  0  0
   -7.3953    1.5871  -22.6597 C   0  0  0  0  0  0  0  0  0  0  0  0
   -8.0175    2.9201  -22.9526 C   0  0  0  0  0  0  0  0  0  0  0  0
   -7.2727    4.1821  -22.6321 Cl  0  0  0  0  0  0  0  0  0  0  0  0
   -9.3844    2.9912  -23.5661 C   0  0  0  0  0  0  0  0  0  0  0  0
  -10.1292    1.7293  -23.8867 C   0  0  0  0  0  0  0  0  0  0  0  0
   -9.5070    0.3963  -23.5938 C   0  0  0  0  0  0  0  0  0  0  0  0
  -10.2518   -0.8657  -23.9144 C   0  0  0  0  0  0  0  0  0  0  0  0
  -11.6188   -0.7946  -24.5279 O   0  0  0  0  0  0  0  0  0  0  0  0
   -4.2315    0.4548  -21.2297 C   0  0  0  0  0  0  0  0  0  0  0  0
   -4.2185    0.9293  -19.8068 C   0  0  0  0  0  0  0  0  0  0  0  0
   -3.0710    1.7524  -19.3011 N   0  0  0  0  0  0  0  0  0  0  0  0
   -1.9365    2.1010  -20.2183 C   0  0  0  0  0  0  0  0  0  0  0  0
   -1.9495    1.6266  -21.6412 C   0  0  0  0  0  0  0  0  0  0  0  0
   -0.8149    1.9752  -22.5585 C   0  0  0  0  0  0  0  0  0  0  0  0
   -0.8280    1.5007  -23.9814 C   0  0  0  0  0  0  0  0  0  0  0  0
   -1.9755    0.6776  -24.4871 C   0  0  0  0  0  0  0  0  0  0  0  0
   -3.1100    0.3290  -23.5699 C   0  0  0  0  0  0  0  0  0  0  0  0
   -3.0970    0.8034  -22.1469 C   0  0  0  0  0  0  0  0  0  0  0  0
  -10.3744   -3.4608  -23.9421 C   0  0  0  0  0  0  0  0  0  0  0  0
  -10.5118   -6.1318  -26.8741 C   0  0  0  0  0  0  0  0  0  0  0  0
  -10.6343   -5.5139  -25.5127 N   0  0  0  0  0  0  0  0  0  0  0  0
  -10.2520   -4.0787  -25.3034 C   0  0  0  0  0  0  0  0  0  0  0  0
   -9.7471   -3.2613  -26.4554 O   0  0  0  0  0  0  0  0  0  0  0  0
  -10.9656   -6.0504  -24.7567 H   0  0  0  0  0  0  0  0  0  0  0  0
   -7.2614   -3.6648  -22.5445 C   0  0  0  0  0  0  0  0  0  0  0  0
   -6.2897   -4.8074  -22.5349 N   0  0  0  0  0  0  0  0  0  0  0  0
   -5.7388   -4.9783  -21.7370 H   0  0  0  0  0  0  0  0  0  0  0  0
   -6.1571   -5.6895  -23.7408 C   0  0  0  0  0  0  0  0  0  0  0  0
   -4.8832   -6.4439  -23.9817 C   0  0  0  0  0  0  0  0  0  0  0  0
   -4.7505   -7.3260  -25.1876 C   0  0  0  0  0  0  0  0  0  0  0  0
   -5.8918   -7.4538  -26.1526 N   0  0  0  0  0  0  0  0  0  0  0  0
   -7.1657   -6.6994  -25.9116 C   0  0  0  0  0  0  0  0  0  0  0  0
   -7.2983   -5.8173  -24.7057 N   0  0  0  0  0  0  0  0  0  0  0  0
 29 30  1  0  0  0
 30 31  1  0  0  0
 31 32  2  0  0  0
 31 28  1  0  0  0
 28  1  1  0  0  0
  1  2  1  0  0  0
  3  2  1  0  0  0
  3  4  1  0  0  0
  4  5  2  0  0  0
  4  6  1  0  0  0
  6 18  1  0  0  0
 18 19  2  0  0  0
 19 20  1  0  0  0
 20 21  2  0  0  0
 21 22  1  0  0  0
 22 23  2  0  0  0
 23 24  1  0  0  0
 24 25  2  0  0  0
 25 26  1  0  0  0
 26 27  2  0  0  0
  6  7  1  0  0  0
  7  8  1  0  0  0
  8 34  1  0  0  0
 34 35  1  0  0  0
 35 37  1  0  0  0
 37 38  2  0  0  0
 38 39  1  0  0  0
 39 40  2  0  0  0
 40 41  1  0  0  0
 41 42  2  0  0  0
  3  9  1  0  0  0
  9 10  2  0  0  0
 10 11  1  0  0  0
 11 12  1  0  0  0
 11 13  2  0  0  0
 13 14  1  0  0  0
 14 15  2  0  0  0
 15 16  1  0  0  0
 16 17  2  0  0  0
 16  1  1  0  0  0
  8  3  1  0  0  0
 42 37  1  0  0  0
 15  9  1  0  0  0
 27 18  1  0  0  0
 27 22  1  0  0  0
 30 33  1  0  0  0
 35 36  1  0  0  0
M  END
> <minimizedAffinity>
-8.01058

> <CNNscore>
0.1378344595

> <CNNaffinity>
6.3442831039

> <CNN_VS>
0.8744608164

> <CNNaffinity_variance>
0.1322591901

$$$$



 42 47  0  0  0  0  0  0  0  0999 V2000
   -9.2922   -2.5652  -23.1662 N   0  0  0  0  0  0  0  0  0  0  0  0
   -8.3034   -1.4374  -23.1442 C   0  0  0  0  0  0  0  0  0  0  0  0
   -8.7824   -0.0184  -23.2265 C   0  0  0  0  0  0  0  0  0  0  0  0
   -9.1104    1.4434  -23.3007 C   0  0  0  0  0  0  0  0  0  0  0  0
  -10.0745    2.1777  -23.3890 O   0  0  0  0  0  0  0  0  0  0  0  0
   -7.8228    2.2109  -23.2464 N   0  0  0  0  0  0  0  0  0  0  0  0
   -6.6988    1.2234  -23.1386 C   0  0  0  0  0  0  0  0  0  0  0  0
   -7.2919   -0.1544  -23.1263 C   0  0  0  0  0  0  0  0  0  0  0  0
  -10.2501    0.2730  -23.3309 C   0  0  0  0  0  0  0  0  0  0  0  0
  -10.7291    1.6920  -23.4132 C   0  0  0  0  0  0  0  0  0  0  0  0
  -12.1968    1.9833  -23.5175 C   0  0  0  0  0  0  0  0  0  0  0  0
  -12.6758    3.4024  -23.5999 Cl  0  0  0  0  0  0  0  0  0  0  0  0
  -13.1856    0.8555  -23.5396 C   0  0  0  0  0  0  0  0  0  0  0  0
  -12.7066   -0.5635  -23.4573 C   0  0  0  0  0  0  0  0  0  0  0  0
  -11.2389   -0.8548  -23.3529 C   0  0  0  0  0  0  0  0  0  0  0  0
  -10.7599   -2.2739  -23.2706 C   0  0  0  0  0  0  0  0  0  0  0  0
  -11.7486   -3.4017  -23.2927 O   0  0  0  0  0  0  0  0  0  0  0  0
   -7.6835    3.7037  -23.2919 C   0  0  0  0  0  0  0  0  0  0  0  0
   -7.1358    4.4424  -22.1068 C   0  0  0  0  0  0  0  0  0  0  0  0
   -6.9966    5.9352  -22.1523 N   0  0  0  0  0  0  0  0  0  0  0  0
   -7.4050    6.6893  -23.3829 C   0  0  0  0  0  0  0  0  0  0  0  0
   -7.9528    5.9507  -24.5680 C   0  0  0  0  0  0  0  0  0  0  0  0
   -8.3613    6.7049  -25.7986 C   0  0  0  0  0  0  0  0  0  0  0  0
   -8.9090    5.9662  -26.9836 C   0  0  0  0  0  0  0  0  0  0  0  0
   -9.0482    4.4733  -26.9381 C   0  0  0  0  0  0  0  0  0  0  0  0
   -8.6398    3.7192  -25.7076 C   0  0  0  0  0  0  0  0  0  0  0  0
   -8.0920    4.4578  -24.5225 C   0  0  0  0  0  0  0  0  0  0  0  0
   -8.8131   -3.9844  -23.0839 C   0  0  0  0  0  0  0  0  0  0  0  0
   -6.7438   -6.1060  -25.7233 C   0  0  0  0  0  0  0  0  0  0  0  0
   -7.1018   -5.3615  -24.4713 N   0  0  0  0  0  0  0  0  0  0  0  0
   -8.4551   -4.7289  -24.3359 C   0  0  0  0  0  0  0  0  0  0  0  0
   -9.4505   -4.8408  -25.4526 O   0  0  0  0  0  0  0  0  0  0  0  0
   -6.4486   -5.2880  -23.7385 H   0  0  0  0  0  0  0  0  0  0  0  0
   -6.5285   -1.4420  -23.0306 C   0  0  0  0  0  0  0  0  0  0  0  0
   -5.1991   -1.4760  -22.3368 N   0  0  0  0  0  0  0  0  0  0  0  0
   -4.4305   -1.9157  -22.7670 H   0  0  0  0  0  0  0  0  0  0  0  0
   -5.0408   -0.8402  -20.9875 C   0  0  0  0  0  0  0  0  0  0  0  0
   -4.0650    0.2831  -20.7976 C   0  0  0  0  0  0  0  0  0  0  0  0
   -3.9067    0.9190  -19.4484 C   0  0  0  0  0  0  0  0  0  0  0  0
   -4.7240    0.4315  -18.2889 N   0  0  0  0  0  0  0  0  0  0  0  0
   -5.6997   -0.6918  -18.4787 C   0  0  0  0  0  0  0  0  0  0  0  0
   -5.8581   -1.3277  -19.8281 N   0  0  0  0  0  0  0  0  0  0  0  0
 29 30  1  0  0  0
 30 31  1  0  0  0
 31 32  2  0  0  0
 31 28  1  0  0  0
 28  1  1  0  0  0
  1  2  1  0  0  0
  3  2  1  0  0  0
  3  4  1  0  0  0
  4  5  2  0  0  0
  4  6  1  0  0  0
  6 18  1  0  0  0
 18 19  2  0  0  0
 19 20  1  0  0  0
 20 21  2  0  0  0
 21 22  1  0  0  0
 22 23  2  0  0  0
 23 24  1  0  0  0
 24 25  2  0  0  0
 25 26  1  0  0  0
 26 27  2  0  0  0
  6  7  1  0  0  0
  7  8  1  0  0  0
  8 34  1  0  0  0
 34 35  1  0  0  0
 35 37  1  0  0  0
 37 38  2  0  0  0
 38 39  1  0  0  0
 39 40  2  0  0  0
 40 41  1  0  0  0
 41 42  2  0  0  0
  3  9  1  0  0  0
  9 10  2  0  0  0
 10 11  1  0  0  0
 11 12  1  0  0  0
 11 13  2  0  0  0
 13 14  1  0  0  0
 14 15  2  0  0  0
 15 16  1  0  0  0
 16 17  2  0  0  0
 16  1  1  0  0  0
  8  3  1  0  0  0
 42 37  1  0  0  0
 15  9  1  0  0  0
 27 18  1  0  0  0
 27 22  1  0  0  0
 30 33  1  0  0  0
 35 36  1  0  0  0
M  END
> <minimizedAffinity>
-8.29230

> <CNNscore>
0.1176047698

> <CNNaffinity>
6.2898273468

> <CNN_VS>
0.7397136688

> <CNNaffinity_variance>
0.6712358594

$$$$



 42 47  0  0  0  0  0  0  0  0999 V2000
   -7.9892    2.3909  -24.1343 N   0  0  0  0  0  0  0  0  0  0  0  0
   -7.1877    1.1230  -24.1461 C   0  0  0  0  0  0  0  0  0  0  0  0
   -7.8691   -0.1970  -23.9385 C   0  0  0  0  0  0  0  0  0  0  0  0
   -8.4090   -1.5832  -23.7460 C   0  0  0  0  0  0  0  0  0  0  0  0
   -9.4640   -2.1518  -23.5462 O   0  0  0  0  0  0  0  0  0  0  0  0
   -7.2606   -2.5442  -23.8334 N   0  0  0  0  0  0  0  0  0  0  0  0
   -6.0110   -1.7520  -24.0799 C   0  0  0  0  0  0  0  0  0  0  0  0
   -6.3871   -0.3014  -24.1449 C   0  0  0  0  0  0  0  0  0  0  0  0
   -9.3521   -0.2492  -23.7191 C   0  0  0  0  0  0  0  0  0  0  0  0
  -10.0336   -1.5692  -23.5115 C   0  0  0  0  0  0  0  0  0  0  0  0
  -11.5165   -1.6214  -23.2922 C   0  0  0  0  0  0  0  0  0  0  0  0
  -12.1980   -2.9414  -23.0846 Cl  0  0  0  0  0  0  0  0  0  0  0  0
  -12.3180   -0.3535  -23.2804 C   0  0  0  0  0  0  0  0  0  0  0  0
  -11.6365    0.9665  -23.4879 C   0  0  0  0  0  0  0  0  0  0  0  0
  -10.1536    1.0187  -23.7073 C   0  0  0  0  0  0  0  0  0  0  0  0
   -9.4721    2.3387  -23.9149 C   0  0  0  0  0  0  0  0  0  0  0  0
  -10.2735    3.6066  -23.9031 O   0  0  0  0  0  0  0  0  0  0  0  0
   -7.3467   -4.0356  -23.6980 C   0  0  0  0  0  0  0  0  0  0  0  0
   -6.8175   -4.7088  -22.4665 C   0  0  0  0  0  0  0  0  0  0  0  0
   -6.9036   -6.2002  -22.3311 N   0  0  0  0  0  0  0  0  0  0  0  0
   -7.5190   -7.0184  -23.4273 C   0  0  0  0  0  0  0  0  0  0  0  0
   -8.0483   -6.3452  -24.6589 C   0  0  0  0  0  0  0  0  0  0  0  0
   -8.6637   -7.1636  -25.7552 C   0  0  0  0  0  0  0  0  0  0  0  0
   -9.1929   -6.4903  -26.9867 C   0  0  0  0  0  0  0  0  0  0  0  0
   -9.1068   -4.9989  -27.1221 C   0  0  0  0  0  0  0  0  0  0  0  0
   -8.4914   -4.1807  -26.0259 C   0  0  0  0  0  0  0  0  0  0  0  0
   -7.9621   -4.8539  -24.7943 C   0  0  0  0  0  0  0  0  0  0  0  0
   -7.3076    3.7109  -24.3419 C   0  0  0  0  0  0  0  0  0  0  0  0
   -6.5340    6.7316  -21.8869 C   0  0  0  0  0  0  0  0  0  0  0  0
   -7.0472    5.9589  -23.0657 N   0  0  0  0  0  0  0  0  0  0  0  0
   -6.7944    4.4836  -23.1631 C   0  0  0  0  0  0  0  0  0  0  0  0
   -6.0284    3.7809  -22.0816 O   0  0  0  0  0  0  0  0  0  0  0  0
   -7.5499    6.4201  -23.7755 H   0  0  0  0  0  0  0  0  0  0  0  0
   -5.4462    0.8439  -24.3757 C   0  0  0  0  0  0  0  0  0  0  0  0
   -4.0493    0.7882  -23.8323 N   0  0  0  0  0  0  0  0  0  0  0  0
   -3.3077    0.4957  -24.4101 H   0  0  0  0  0  0  0  0  0  0  0  0
   -3.7821    1.1779  -22.4087 C   0  0  0  0  0  0  0  0  0  0  0  0
   -4.4735    0.4552  -21.2908 C   0  0  0  0  0  0  0  0  0  0  0  0
   -4.2063    0.8450  -19.8673 C   0  0  0  0  0  0  0  0  0  0  0  0
   -3.2477    1.9575  -19.5615 N   0  0  0  0  0  0  0  0  0  0  0  0
   -2.5563    2.6802  -20.6794 C   0  0  0  0  0  0  0  0  0  0  0  0
   -2.8235    2.2904  -22.1030 N   0  0  0  0  0  0  0  0  0  0  0  0
 29 30  1  0  0  0
 30 31  1  0  0  0
 31 32  2  0  0  0
 31 28  1  0  0  0
 28  1  1  0  0  0
  1  2  1  0  0  0
  3  2  1  0  0  0
  3  4  1  0  0  0
  4  5  2  0  0  0
  4  6  1  0  0  0
  6 18  1  0  0  0
 18 19  2  0  0  0
 19 20  1  0  0  0
 20 21  2  0  0  0
 21 22  1  0  0  0
 22 23  2  0  0  0
 23 24  1  0  0  0
 24 25  2  0  0  0
 25 26  1  0  0  0
 26 27  2  0  0  0
  6  7  1  0  0  0
  7  8  1  0  0  0
  8 34  1  0  0  0
 34 35  1  0  0  0
 35 37  1  0  0  0
 37 38  2  0  0  0
 38 39  1  0  0  0
 39 40  2  0  0  0
 40 41  1  0  0  0
 41 42  2  0  0  0
  3  9  1  0  0  0
  9 10  2  0  0  0
 10 11  1  0  0  0
 11 12  1  0  0  0
 11 13  2  0  0  0
 13 14  1  0  0  0
 14 15  2  0  0  0
 15 16  1  0  0  0
 16 17  2  0  0  0
 16  1  1  0  0  0
  8  3  1  0  0  0
 42 37  1  0  0  0
 15  9  1  0  0  0
 27 18  1  0  0  0
 27 22  1  0  0  0
 30 33  1  0  0  0
 35 36  1  0  0  0
M  END
> <minimizedAffinity>
-7.65676

> <CNNscore>
0.1172889918

> <CNNaffinity>
6.3774795532

> <CNN_VS>
0.7480081320

> <CNNaffinity_variance>
0.2824450433

$$$$
