


 42 47  0  0  0  0  0  0  0  0999 V2000
   10.1927    0.3100   23.0462 N   0  0  0  0  0  0  0  0  0  0  0  0
    8.9786   -0.5595   22.9052 C   0  0  0  0  0  0  0  0  0  0  0  0
    8.8856   -1.8475   23.6683 C   0  0  0  0  0  0  0  0  0  0  0  0
    8.6523   -3.1556   24.3643 C   0  0  0  0  0  0  0  0  0  0  0  0
    9.2006   -3.9026   25.1502 O   0  0  0  0  0  0  0  0  0  0  0  0
    7.3141   -3.6781   23.9326 N   0  0  0  0  0  0  0  0  0  0  0  0
    6.7204   -2.6929   22.9699 C   0  0  0  0  0  0  0  0  0  0  0  0
    7.6917   -1.5615   22.8066 C   0  0  0  0  0  0  0  0  0  0  0  0
   10.0069   -2.2660   24.5726 C   0  0  0  0  0  0  0  0  0  0  0  0
    9.9140   -3.5540   25.3358 C   0  0  0  0  0  0  0  0  0  0  0  0
   11.0352   -3.9724   26.2401 C   0  0  0  0  0  0  0  0  0  0  0  0
   10.9423   -5.2605   27.0033 Cl  0  0  0  0  0  0  0  0  0  0  0  0
   12.2493   -3.1030   26.3811 C   0  0  0  0  0  0  0  0  0  0  0  0
   12.3422   -1.8150   25.6180 C   0  0  0  0  0  0  0  0  0  0  0  0
   11.2210   -1.3965   24.7137 C   0  0  0  0  0  0  0  0  0  0  0  0
   11.3139   -0.1085   23.9505 C   0  0  0  0  0  0  0  0  0  0  0  0
   12.5280    0.7610   24.0915 O   0  0  0  0  0  0  0  0  0  0  0  0
    6.6809   -4.9606   24.3844 C   0  0  0  0  0  0  0  0  0  0  0  0
    7.1318   -6.2664   23.7998 C   0  0  0  0  0  0  0  0  0  0  0  0
    6.4986   -7.5489   24.2516 N   0  0  0  0  0  0  0  0  0  0  0  0
    5.4144   -7.5257   25.2879 C   0  0  0  0  0  0  0  0  0  0  0  0
    4.9634   -6.2199   25.8724 C   0  0  0  0  0  0  0  0  0  0  0  0
    3.8791   -6.1967   26.9088 C   0  0  0  0  0  0  0  0  0  0  0  0
    3.4283   -4.8909   27.4933 C   0  0  0  0  0  0  0  0  0  0  0  0
    4.0615   -3.6084   27.0415 C   0  0  0  0  0  0  0  0  0  0  0  0
    5.1457   -3.6316   26.0052 C   0  0  0  0  0  0  0  0  0  0  0  0
    5.5967   -4.9374   25.4207 C   0  0  0  0  0  0  0  0  0  0  0  0
   10.2856    1.5980   22.2830 C   0  0  0  0  0  0  0  0  0  0  0  0
    8.0510    4.6758   23.4159 C   0  0  0  0  0  0  0  0  0  0  0  0
    9.1777    3.6873   23.3588 N   0  0  0  0  0  0  0  0  0  0  0  0
    9.1588    2.5865   22.3401 C   0  0  0  0  0  0  0  0  0  0  0  0
    8.0131    2.4742   21.3784 O   0  0  0  0  0  0  0  0  0  0  0  0
    9.9297    3.7610   23.9899 H   0  0  0  0  0  0  0  0  0  0  0  0
    7.5022   -0.3558   21.9346 C   0  0  0  0  0  0  0  0  0  0  0  0
    7.3554   -0.5189   20.4508 N   0  0  0  0  0  0  0  0  0  0  0  0
    8.0054   -1.0616   19.9486 H   0  0  0  0  0  0  0  0  0  0  0  0
    6.2183    0.1448   19.7321 C   0  0  0  0  0  0  0  0  0  0  0  0
    5.0850    0.7426   20.5119 C   0  0  0  0  0  0  0  0  0  0  0  0
    3.9480    1.4063   19.7932 C   0  0  0  0  0  0  0  0  0  0  0  0
    3.9441    1.4722   18.2946 N   0  0  0  0  0  0  0  0  0  0  0  0
    5.0775    0.8744   17.5148 C   0  0  0  0  0  0  0  0  0  0  0  0
    6.2146    0.2107   18.2335 N   0  0  0  0  0  0  0  0  0  0  0  0
 29 30  1  0  0  0
 30 31  1  0  0  0
 31 32  2  0  0  0
 31 28  1  0  0  0
 28  1  1  0  0  0
  1  2  1  0  0  0
  3  2  1  0  0  0
  3  4  1  0  0  0
  4  5  2  0  0  0
  4  6  1  0  0  0
  6 18  1  0  0  0
 18 19  2  0  0  0
 19 20  1  0  0  0
 20 21  2  0  0  0
 21 22  1  0  0  0
 22 23  2  0  0  0
 23 24  1  0  0  0
 24 25  2  0  0  0
 25 26  1  0  0  0
 26 27  2  0  0  0
  6  7  1  0  0  0
  7  8  1  0  0  0
  8 34  1  0  0  0
 34 35  1  0  0  0
 35 37  1  0  0  0
 37 38  2  0  0  0
 38 39  1  0  0  0
 39 40  2  0  0  0
 40 41  1  0  0  0
 41 42  2  0  0  0
  3  9  1  0  0  0
  9 10  2  0  0  0
 10 11  1  0  0  0
 11 12  1  0  0  0
 11 13  2  0  0  0
 13 14  1  0  0  0
 14 15  2  0  0  0
 15 16  1  0  0  0
 16 17  2  0  0  0
 16  1  1  0  0  0
  8  3  1  0  0  0
 42 37  1  0  0  0
 15  9  1  0  0  0
 27 18  1  0  0  0
 27 22  1  0  0  0
 30 33  1  0  0  0
 35 36  1  0  0  0
M  END
> <minimizedAffinity>
-9.44913

> <CNNscore>
0.4783329368

> <CNNaffinity>
7.1857643127

> <CNN_VS>
3.4371876717

> <CNNaffinity_variance>
0.2157424688

$$$$



 42 47  0  0  0  0  0  0  0  0999 V2000
    9.8705    0.5174   22.8787 N   0  0  0  0  0  0  0  0  0  0  0  0
    8.7132   -0.4243   22.7240 C   0  0  0  0  0  0  0  0  0  0  0  0
    8.6680   -1.6944   23.5206 C   0  0  0  0  0  0  0  0  0  0  0  0
    8.4862   -2.9946   24.2462 C   0  0  0  0  0  0  0  0  0  0  0  0
    9.0494   -3.6872   25.0705 O   0  0  0  0  0  0  0  0  0  0  0  0
    7.1952   -3.6050   23.7872 N   0  0  0  0  0  0  0  0  0  0  0  0
    6.5791   -2.6820   22.7779 C   0  0  0  0  0  0  0  0  0  0  0  0
    7.4894   -1.5013   22.6132 C   0  0  0  0  0  0  0  0  0  0  0  0
    9.7802   -2.0229   24.4721 C   0  0  0  0  0  0  0  0  0  0  0  0
    9.7351   -3.2930   25.2688 C   0  0  0  0  0  0  0  0  0  0  0  0
   10.8473   -3.6214   26.2202 C   0  0  0  0  0  0  0  0  0  0  0  0
   10.8022   -4.8916   27.0169 Cl  0  0  0  0  0  0  0  0  0  0  0  0
   12.0045   -2.6798   26.3749 C   0  0  0  0  0  0  0  0  0  0  0  0
   12.0497   -1.4096   25.5782 C   0  0  0  0  0  0  0  0  0  0  0  0
   10.9375   -1.0812   24.6268 C   0  0  0  0  0  0  0  0  0  0  0  0
   10.9826    0.1890   23.8301 C   0  0  0  0  0  0  0  0  0  0  0  0
   12.1399    1.1306   23.9848 O   0  0  0  0  0  0  0  0  0  0  0  0
    6.6210   -4.9093   24.2553 C   0  0  0  0  0  0  0  0  0  0  0  0
    7.1766   -6.2025   23.7366 C   0  0  0  0  0  0  0  0  0  0  0  0
    6.6025   -7.5069   24.2047 N   0  0  0  0  0  0  0  0  0  0  0  0
    5.4728   -7.5180   25.1914 C   0  0  0  0  0  0  0  0  0  0  0  0
    4.9173   -6.2247   25.7101 C   0  0  0  0  0  0  0  0  0  0  0  0
    3.7875   -6.2359   26.6969 C   0  0  0  0  0  0  0  0  0  0  0  0
    3.2320   -4.9426   27.2155 C   0  0  0  0  0  0  0  0  0  0  0  0
    3.8061   -3.6383   26.7474 C   0  0  0  0  0  0  0  0  0  0  0  0
    4.9358   -3.6272   25.7607 C   0  0  0  0  0  0  0  0  0  0  0  0
    5.4914   -4.9204   25.2420 C   0  0  0  0  0  0  0  0  0  0  0  0
    9.9155    1.7876   22.0819 C   0  0  0  0  0  0  0  0  0  0  0  0
   11.8145    5.1743   22.9027 C   0  0  0  0  0  0  0  0  0  0  0  0
   10.7054    4.1890   22.6811 N   0  0  0  0  0  0  0  0  0  0  0  0
   11.0246    2.7729   22.3035 C   0  0  0  0  0  0  0  0  0  0  0  0
   12.4530    2.3420   22.1475 O   0  0  0  0  0  0  0  0  0  0  0  0
    9.7680    4.4718   22.7836 H   0  0  0  0  0  0  0  0  0  0  0  0
    7.2611   -0.3325   21.7011 C   0  0  0  0  0  0  0  0  0  0  0  0
    7.0562   -0.5562   20.2322 N   0  0  0  0  0  0  0  0  0  0  0  0
    7.6116   -1.2122   19.7520 H   0  0  0  0  0  0  0  0  0  0  0  0
    6.0052    0.2194   19.4947 C   0  0  0  0  0  0  0  0  0  0  0  0
    4.9017    0.8956   20.2530 C   0  0  0  0  0  0  0  0  0  0  0  0
    3.8508    1.6712   19.5156 C   0  0  0  0  0  0  0  0  0  0  0  0
    3.9033    1.7707   18.0198 N   0  0  0  0  0  0  0  0  0  0  0  0
    5.0067    1.0944   17.2615 C   0  0  0  0  0  0  0  0  0  0  0  0
    6.0577    0.3188   17.9989 N   0  0  0  0  0  0  0  0  0  0  0  0
 29 30  1  0  0  0
 30 31  1  0  0  0
 31 32  2  0  0  0
 31 28  1  0  0  0
 28  1  1  0  0  0
  1  2  1  0  0  0
  3  2  1  0  0  0
  3  4  1  0  0  0
  4  5  2  0  0  0
  4  6  1  0  0  0
  6 18  1  0  0  0
 18 19  2  0  0  0
 19 20  1  0  0  0
 20 21  2  0  0  0
 21 22  1  0  0  0
 22 23  2  0  0  0
 23 24  1  0  0  0
 24 25  2  0  0  0
 25 26  1  0  0  0
 26 27  2  0  0  0
  6  7  1  0  0  0
  7  8  1  0  0  0
  8 34  1  0  0  0
 34 35  1  0  0  0
 35 37  1  0  0  0
 37 38  2  0  0  0
 38 39  1  0  0  0
 39 40  2  0  0  0
 40 41  1  0  0  0
 41 42  2  0  0  0
  3  9  1  0  0  0
  9 10  2  0  0  0
 10 11  1  0  0  0
 11 12  1  0  0  0
 11 13  2  0  0  0
 13 14  1  0  0  0
 14 15  2  0  0  0
 15 16  1  0  0  0
 16 17  2  0  0  0
 16  1  1  0  0  0
  8  3  1  0  0  0
 42 37  1  0  0  0
 15  9  1  0  0  0
 27 18  1  0  0  0
 27 22  1  0  0  0
 30 33  1  0  0  0
 35 36  1  0  0  0
M  END
> <minimizedAffinity>
-9.18077

> <CNNscore>
0.2912474871

> <CNNaffinity>
7.0745825768

> <CNN_VS>
2.0604543686

> <CNNaffinity_variance>
0.0986309722

$$$$



 42 47  0  0  0  0  0  0  0  0999 V2000
    6.8692   -3.4703   23.6352 N   0  0  0  0  0  0  0  0  0  0  0  0
    7.0649   -2.0835   23.0980 C   0  0  0  0  0  0  0  0  0  0  0  0
    8.3324   -1.3373   23.3922 C   0  0  0  0  0  0  0  0  0  0  0  0
    9.5401   -0.4727   23.6022 C   0  0  0  0  0  0  0  0  0  0  0  0
   10.6204   -0.5017   24.1576 O   0  0  0  0  0  0  0  0  0  0  0  0
    9.3089    0.8273   22.8905 N   0  0  0  0  0  0  0  0  0  0  0  0
    7.9584    0.7663   22.2407 C   0  0  0  0  0  0  0  0  0  0  0  0
    7.3549   -0.5715   22.5508 C   0  0  0  0  0  0  0  0  0  0  0  0
    9.4042   -1.9778   24.2235 C   0  0  0  0  0  0  0  0  0  0  0  0
   10.6717   -1.2315   24.5177 C   0  0  0  0  0  0  0  0  0  0  0  0
   11.7434   -1.8721   25.3490 C   0  0  0  0  0  0  0  0  0  0  0  0
   13.0109   -1.1258   25.6432 Cl  0  0  0  0  0  0  0  0  0  0  0  0
   11.5476   -3.2588   25.8862 C   0  0  0  0  0  0  0  0  0  0  0  0
   10.2802   -4.0051   25.5920 C   0  0  0  0  0  0  0  0  0  0  0  0
    9.2085   -3.3646   24.7607 C   0  0  0  0  0  0  0  0  0  0  0  0
    7.9409   -4.1108   24.4665 C   0  0  0  0  0  0  0  0  0  0  0  0
    7.7451   -5.4976   25.0036 O   0  0  0  0  0  0  0  0  0  0  0  0
   10.2612    1.9851   22.8380 C   0  0  0  0  0  0  0  0  0  0  0  0
   11.7265    1.7422   22.6288 C   0  0  0  0  0  0  0  0  0  0  0  0
   12.6787    2.8999   22.5763 N   0  0  0  0  0  0  0  0  0  0  0  0
   12.1656    4.3007   22.7328 C   0  0  0  0  0  0  0  0  0  0  0  0
   10.7002    4.5437   22.9419 C   0  0  0  0  0  0  0  0  0  0  0  0
   10.1871    5.9445   23.0985 C   0  0  0  0  0  0  0  0  0  0  0  0
    8.7217    6.1874   23.3076 C   0  0  0  0  0  0  0  0  0  0  0  0
    7.7695    5.0296   23.3601 C   0  0  0  0  0  0  0  0  0  0  0  0
    8.2827    3.6288   23.2036 C   0  0  0  0  0  0  0  0  0  0  0  0
    9.7480    3.3859   22.9945 C   0  0  0  0  0  0  0  0  0  0  0  0
    5.6016   -4.2166   23.3409 C   0  0  0  0  0  0  0  0  0  0  0  0
    4.8789   -7.5487   25.3718 C   0  0  0  0  0  0  0  0  0  0  0  0
    4.9880   -6.0921   25.0309 N   0  0  0  0  0  0  0  0  0  0  0  0
    5.4926   -5.6732   23.6818 C   0  0  0  0  0  0  0  0  0  0  0  0
    5.8882   -6.7111   22.6736 O   0  0  0  0  0  0  0  0  0  0  0  0
    4.7284   -5.4109   25.6926 H   0  0  0  0  0  0  0  0  0  0  0  0
    6.0099   -1.0581   22.0987 C   0  0  0  0  0  0  0  0  0  0  0  0
    5.7668   -1.3503   20.6478 N   0  0  0  0  0  0  0  0  0  0  0  0
    5.9724   -2.2417   20.2840 H   0  0  0  0  0  0  0  0  0  0  0  0
    5.2104   -0.2844   19.7509 C   0  0  0  0  0  0  0  0  0  0  0  0
    4.2835    0.7554   20.3074 C   0  0  0  0  0  0  0  0  0  0  0  0
    3.7270    1.8212   19.4106 C   0  0  0  0  0  0  0  0  0  0  0  0
    4.0975    1.8473   17.9573 N   0  0  0  0  0  0  0  0  0  0  0  0
    5.0244    0.8075   17.4008 C   0  0  0  0  0  0  0  0  0  0  0  0
    5.5809   -0.2583   18.2977 N   0  0  0  0  0  0  0  0  0  0  0  0
 29 30  1  0  0  0
 30 31  1  0  0  0
 31 32  2  0  0  0
 31 28  1  0  0  0
 28  1  1  0  0  0
  1  2  1  0  0  0
  3  2  1  0  0  0
  3  4  1  0  0  0
  4  5  2  0  0  0
  4  6  1  0  0  0
  6 18  1  0  0  0
 18 19  2  0  0  0
 19 20  1  0  0  0
 20 21  2  0  0  0
 21 22  1  0  0  0
 22 23  2  0  0  0
 23 24  1  0  0  0
 24 25  2  0  0  0
 25 26  1  0  0  0
 26 27  2  0  0  0
  6  7  1  0  0  0
  7  8  1  0  0  0
  8 34  1  0  0  0
 34 35  1  0  0  0
 35 37  1  0  0  0
 37 38  2  0  0  0
 38 39  1  0  0  0
 39 40  2  0  0  0
 40 41  1  0  0  0
 41 42  2  0  0  0
  3  9  1  0  0  0
  9 10  2  0  0  0
 10 11  1  0  0  0
 11 12  1  0  0  0
 11 13  2  0  0  0
 13 14  1  0  0  0
 14 15  2  0  0  0
 15 16  1  0  0  0
 16 17  2  0  0  0
 16  1  1  0  0  0
  8  3  1  0  0  0
 42 37  1  0  0  0
 15  9  1  0  0  0
 27 18  1  0  0  0
 27 22  1  0  0  0
 30 33  1  0  0  0
 35 36  1  0  0  0
M  END
> <minimizedAffinity>
-8.82836

> <CNNscore>
0.2406517267

> <CNNaffinity>
6.9008536339

> <CNN_VS>
1.6607023478

> <CNNaffinity_variance>
0.1558780372

$$$$



 42 47  0  0  0  0  0  0  0  0999 V2000
    6.9058   -3.7610   23.0516 N   0  0  0  0  0  0  0  0  0  0  0  0
    7.1463   -2.3781   22.5227 C   0  0  0  0  0  0  0  0  0  0  0  0
    8.3235   -1.5844   23.0063 C   0  0  0  0  0  0  0  0  0  0  0  0
    9.4523   -0.6759   23.3943 C   0  0  0  0  0  0  0  0  0  0  0  0
   10.4251   -0.6586   24.1222 O   0  0  0  0  0  0  0  0  0  0  0  0
    9.3039    0.6028   22.6243 N   0  0  0  0  0  0  0  0  0  0  0  0
    8.0832    0.4847   21.7605 C   0  0  0  0  0  0  0  0  0  0  0  0
    7.4774   -0.8671   21.9966 C   0  0  0  0  0  0  0  0  0  0  0  0
    9.2604   -2.1735   24.0189 C   0  0  0  0  0  0  0  0  0  0  0  0
   10.4377   -1.3798   24.5025 C   0  0  0  0  0  0  0  0  0  0  0  0
   11.3745   -1.9689   25.5150 C   0  0  0  0  0  0  0  0  0  0  0  0
   12.5519   -1.1752   25.9987 Cl  0  0  0  0  0  0  0  0  0  0  0  0
   11.1341   -3.3518   26.0439 C   0  0  0  0  0  0  0  0  0  0  0  0
    9.9568   -4.1456   25.5603 C   0  0  0  0  0  0  0  0  0  0  0  0
    9.0200   -3.5564   24.5478 C   0  0  0  0  0  0  0  0  0  0  0  0
    7.8426   -4.3502   24.0641 C   0  0  0  0  0  0  0  0  0  0  0  0
    7.6022   -5.7331   24.5930 O   0  0  0  0  0  0  0  0  0  0  0  0
   10.2159    1.7910   22.7042 C   0  0  0  0  0  0  0  0  0  0  0  0
   11.6976    1.6105   22.5567 C   0  0  0  0  0  0  0  0  0  0  0  0
   12.6096    2.7987   22.6365 N   0  0  0  0  0  0  0  0  0  0  0  0
   12.0399    4.1675   22.8640 C   0  0  0  0  0  0  0  0  0  0  0  0
   10.5581    4.3480   23.0115 C   0  0  0  0  0  0  0  0  0  0  0  0
    9.9883    5.7169   23.2389 C   0  0  0  0  0  0  0  0  0  0  0  0
    8.5065    5.8974   23.3865 C   0  0  0  0  0  0  0  0  0  0  0  0
    7.5945    4.7092   23.3066 C   0  0  0  0  0  0  0  0  0  0  0  0
    8.1643    3.3404   23.0792 C   0  0  0  0  0  0  0  0  0  0  0  0
    9.6461    3.1598   22.9316 C   0  0  0  0  0  0  0  0  0  0  0  0
    5.7284   -4.5548   22.5680 C   0  0  0  0  0  0  0  0  0  0  0  0
    3.3094   -7.2283   24.2263 C   0  0  0  0  0  0  0  0  0  0  0  0
    4.2208   -6.5614   23.2392 N   0  0  0  0  0  0  0  0  0  0  0  0
    4.8170   -5.2218   23.5551 C   0  0  0  0  0  0  0  0  0  0  0  0
    4.5019   -4.5491   24.8583 O   0  0  0  0  0  0  0  0  0  0  0  0
    4.4276   -7.0029   22.3838 H   0  0  0  0  0  0  0  0  0  0  0  0
    6.2422   -1.4067   21.3385 C   0  0  0  0  0  0  0  0  0  0  0  0
    5.7463   -0.7980   20.0605 N   0  0  0  0  0  0  0  0  0  0  0  0
    6.0719   -1.1365   19.1953 H   0  0  0  0  0  0  0  0  0  0  0  0
    4.7544    0.3265   20.1007 C   0  0  0  0  0  0  0  0  0  0  0  0
    4.4200    1.0768   18.8457 C   0  0  0  0  0  0  0  0  0  0  0  0
    3.4282    2.2013   18.8858 C   0  0  0  0  0  0  0  0  0  0  0  0
    2.7706    2.5755   20.1811 N   0  0  0  0  0  0  0  0  0  0  0  0
    3.1050    1.8252   21.4361 C   0  0  0  0  0  0  0  0  0  0  0  0
    4.0969    0.7007   21.3959 N   0  0  0  0  0  0  0  0  0  0  0  0
 29 30  1  0  0  0
 30 31  1  0  0  0
 31 32  2  0  0  0
 31 28  1  0  0  0
 28  1  1  0  0  0
  1  2  1  0  0  0
  3  2  1  0  0  0
  3  4  1  0  0  0
  4  5  2  0  0  0
  4  6  1  0  0  0
  6 18  1  0  0  0
 18 19  2  0  0  0
 19 20  1  0  0  0
 20 21  2  0  0  0
 21 22  1  0  0  0
 22 23  2  0  0  0
 23 24  1  0  0  0
 24 25  2  0  0  0
 25 26  1  0  0  0
 26 27  2  0  0  0
  6  7  1  0  0  0
  7  8  1  0  0  0
  8 34  1  0  0  0
 34 35  1  0  0  0
 35 37  1  0  0  0
 37 38  2  0  0  0
 38 39  1  0  0  0
 39 40  2  0  0  0
 40 41  1  0  0  0
 41 42  2  0  0  0
  3  9  1  0  0  0
  9 10  2  0  0  0
 10 11  1  0  0  0
 11 12  1  0  0  0
 11 13  2  0  0  0
 13 14  1  0  0  0
 14 15  2  0  0  0
 15 16  1  0  0  0
 16 17  2  0  0  0
 16  1  1  0  0  0
  8  3  1  0  0  0
 42 37  1  0  0  0
 15  9  1  0  0  0
 27 18  1  0  0  0
 27 22  1  0  0  0
 30 33  1  0  0  0
 35 36  1  0  0  0
M  END
> <minimizedAffinity>
-8.69031

> <CNNscore>
0.2014878094

> <CNNaffinity>
6.7851476669

> <CNN_VS>
1.3671245575

> <CNNaffinity_variance>
0.1570159644

$$$$



 42 47  0  0  0  0  0  0  0  0999 V2000
    5.2714    1.2575   21.1582 N   0  0  0  0  0  0  0  0  0  0  0  0
    6.1386    0.0739   21.4696 C   0  0  0  0  0  0  0  0  0  0  0  0
    7.5127    0.2789   22.0351 C   0  0  0  0  0  0  0  0  0  0  0  0
    8.9010    0.3276   22.6010 C   0  0  0  0  0  0  0  0  0  0  0  0
    9.7295    1.1380   22.9658 O   0  0  0  0  0  0  0  0  0  0  0  0
    9.3902   -1.0824   22.7510 N   0  0  0  0  0  0  0  0  0  0  0  0
    8.3042   -2.0026   22.2778 C   0  0  0  0  0  0  0  0  0  0  0  0
    7.1439   -1.1612   21.8354 C   0  0  0  0  0  0  0  0  0  0  0  0
    8.0196    1.6677   22.2892 C   0  0  0  0  0  0  0  0  0  0  0  0
    9.3936    1.8728   22.8548 C   0  0  0  0  0  0  0  0  0  0  0  0
    9.9005    3.2614   23.1088 C   0  0  0  0  0  0  0  0  0  0  0  0
   11.2746    3.4666   23.6744 Cl  0  0  0  0  0  0  0  0  0  0  0  0
    9.0333    4.4451   22.7974 C   0  0  0  0  0  0  0  0  0  0  0  0
    7.6592    4.2400   22.2319 C   0  0  0  0  0  0  0  0  0  0  0  0
    7.1524    2.8513   21.9778 C   0  0  0  0  0  0  0  0  0  0  0  0
    5.7782    2.6462   21.4123 C   0  0  0  0  0  0  0  0  0  0  0  0
    4.9110    3.8298   21.1008 O   0  0  0  0  0  0  0  0  0  0  0  0
   10.7301   -1.4991   23.2811 C   0  0  0  0  0  0  0  0  0  0  0  0
   11.9768   -1.1594   22.5192 C   0  0  0  0  0  0  0  0  0  0  0  0
   13.3167   -1.5760   23.0493 N   0  0  0  0  0  0  0  0  0  0  0  0
   13.4099   -2.3324   24.3413 C   0  0  0  0  0  0  0  0  0  0  0  0
   12.1632   -2.6721   25.1032 C   0  0  0  0  0  0  0  0  0  0  0  0
   12.2565   -3.4285   26.3952 C   0  0  0  0  0  0  0  0  0  0  0  0
   11.0098   -3.7681   27.1570 C   0  0  0  0  0  0  0  0  0  0  0  0
    9.6699   -3.3515   26.6269 C   0  0  0  0  0  0  0  0  0  0  0  0
    9.5766   -2.5951   25.3349 C   0  0  0  0  0  0  0  0  0  0  0  0
   10.8233   -2.2554   24.5731 C   0  0  0  0  0  0  0  0  0  0  0  0
    3.8973    1.0523   20.5927 C   0  0  0  0  0  0  0  0  0  0  0  0
    1.4695    4.1133   19.8955 C   0  0  0  0  0  0  0  0  0  0  0  0
    2.5269    3.0686   19.6945 N   0  0  0  0  0  0  0  0  0  0  0  0
    2.8399    2.0971   20.7937 C   0  0  0  0  0  0  0  0  0  0  0  0
    2.0955    2.1704   22.0939 O   0  0  0  0  0  0  0  0  0  0  0  0
    3.0154    3.0205   18.8411 H   0  0  0  0  0  0  0  0  0  0  0  0
    5.8431   -1.6706   21.2891 C   0  0  0  0  0  0  0  0  0  0  0  0
    5.0321   -2.6550   22.0786 N   0  0  0  0  0  0  0  0  0  0  0  0
    4.1333   -2.4095   22.3966 H   0  0  0  0  0  0  0  0  0  0  0  0
    5.5905   -4.0134   22.3836 C   0  0  0  0  0  0  0  0  0  0  0  0
    6.1683   -4.3000   23.7378 C   0  0  0  0  0  0  0  0  0  0  0  0
    6.7266   -5.6583   24.0428 C   0  0  0  0  0  0  0  0  0  0  0  0
    6.7072   -6.7302   22.9935 N   0  0  0  0  0  0  0  0  0  0  0  0
    6.1293   -6.4435   21.6393 C   0  0  0  0  0  0  0  0  0  0  0  0
    5.5710   -5.0851   21.3343 N   0  0  0  0  0  0  0  0  0  0  0  0
 29 30  1  0  0  0
 30 31  1  0  0  0
 31 32  2  0  0  0
 31 28  1  0  0  0
 28  1  1  0  0  0
  1  2  1  0  0  0
  3  2  1  0  0  0
  3  4  1  0  0  0
  4  5  2  0  0  0
  4  6  1  0  0  0
  6 18  1  0  0  0
 18 19  2  0  0  0
 19 20  1  0  0  0
 20 21  2  0  0  0
 21 22  1  0  0  0
 22 23  2  0  0  0
 23 24  1  0  0  0
 24 25  2  0  0  0
 25 26  1  0  0  0
 26 27  2  0  0  0
  6  7  1  0  0  0
  7  8  1  0  0  0
  8 34  1  0  0  0
 34 35  1  0  0  0
 35 37  1  0  0  0
 37 38  2  0  0  0
 38 39  1  0  0  0
 39 40  2  0  0  0
 40 41  1  0  0  0
 41 42  2  0  0  0
  3  9  1  0  0  0
  9 10  2  0  0  0
 10 11  1  0  0  0
 11 12  1  0  0  0
 11 13  2  0  0  0
 13 14  1  0  0  0
 14 15  2  0  0  0
 15 16  1  0  0  0
 16 17  2  0  0  0
 16  1  1  0  0  0
  8  3  1  0  0  0
 42 37  1  0  0  0
 15  9  1  0  0  0
 27 18  1  0  0  0
 27 22  1  0  0  0
 30 33  1  0  0  0
 35 36  1  0  0  0
M  END
> <minimizedAffinity>
-7.83389

> <CNNscore>
0.1932756454

> <CNNaffinity>
6.8411951065

> <CNN_VS>
1.3222364187

> <CNNaffinity_variance>
0.0578468665

$$$$



 42 47  0  0  0  0  0  0  0  0999 V2000
   10.7073    1.6004   22.7534 N   0  0  0  0  0  0  0  0  0  0  0  0
    9.3222    1.2116   23.1779 C   0  0  0  0  0  0  0  0  0  0  0  0
    9.1189    0.0389   24.0908 C   0  0  0  0  0  0  0  0  0  0  0  0
    8.7618   -1.1035   24.9949 C   0  0  0  0  0  0  0  0  0  0  0  0
    9.2966   -1.9943   25.6248 O   0  0  0  0  0  0  0  0  0  0  0  0
    7.2698   -1.1242   25.1486 N   0  0  0  0  0  0  0  0  0  0  0  0
    6.7048    0.0054   24.3395 C   0  0  0  0  0  0  0  0  0  0  0  0
    7.8476    0.7243   23.6858 C   0  0  0  0  0  0  0  0  0  0  0  0
   10.3008   -0.7450   24.5794 C   0  0  0  0  0  0  0  0  0  0  0  0
   10.0976   -1.9177   25.4923 C   0  0  0  0  0  0  0  0  0  0  0  0
   11.2794   -2.7015   25.9808 C   0  0  0  0  0  0  0  0  0  0  0  0
   11.0762   -3.8743   26.8938 Cl  0  0  0  0  0  0  0  0  0  0  0  0
   12.6646   -2.3127   25.5563 C   0  0  0  0  0  0  0  0  0  0  0  0
   12.8679   -1.1401   24.6434 C   0  0  0  0  0  0  0  0  0  0  0  0
   11.6860   -0.3562   24.1549 C   0  0  0  0  0  0  0  0  0  0  0  0
   11.8892    0.8165   23.2419 C   0  0  0  0  0  0  0  0  0  0  0  0
   13.2744    1.2053   22.8175 O   0  0  0  0  0  0  0  0  0  0  0  0
    6.4814   -2.1027   25.9676 C   0  0  0  0  0  0  0  0  0  0  0  0
    6.0340   -1.7341   27.3511 C   0  0  0  0  0  0  0  0  0  0  0  0
    5.2455   -2.7126   28.1701 N   0  0  0  0  0  0  0  0  0  0  0  0
    4.9044   -4.0598   27.6056 C   0  0  0  0  0  0  0  0  0  0  0  0
    5.3518   -4.4285   26.2221 C   0  0  0  0  0  0  0  0  0  0  0  0
    5.0106   -5.7758   25.6577 C   0  0  0  0  0  0  0  0  0  0  0  0
    5.4580   -6.1443   24.2742 C   0  0  0  0  0  0  0  0  0  0  0  0
    6.2465   -5.1658   23.4552 C   0  0  0  0  0  0  0  0  0  0  0  0
    6.5876   -3.8186   24.0197 C   0  0  0  0  0  0  0  0  0  0  0  0
    6.1403   -3.4499   25.4031 C   0  0  0  0  0  0  0  0  0  0  0  0
   10.9106    2.7731   21.8405 C   0  0  0  0  0  0  0  0  0  0  0  0
   10.7416    6.4373   23.3554 C   0  0  0  0  0  0  0  0  0  0  0  0
   10.3117    5.1148   22.7932 N   0  0  0  0  0  0  0  0  0  0  0  0
   11.3406    4.0956   22.4027 C   0  0  0  0  0  0  0  0  0  0  0  0
   12.7996    4.3989   22.5745 O   0  0  0  0  0  0  0  0  0  0  0  0
    9.3541    4.9157   22.6804 H   0  0  0  0  0  0  0  0  0  0  0  0
    7.7383    1.9187   22.7851 C   0  0  0  0  0  0  0  0  0  0  0  0
    6.4575    2.1919   22.0537 N   0  0  0  0  0  0  0  0  0  0  0  0
    5.8125    2.8413   22.4163 H   0  0  0  0  0  0  0  0  0  0  0  0
    6.1595    1.4757   20.7698 C   0  0  0  0  0  0  0  0  0  0  0  0
    4.8559    1.7097   20.0657 C   0  0  0  0  0  0  0  0  0  0  0  0
    4.5579    0.9936   18.7819 C   0  0  0  0  0  0  0  0  0  0  0  0
    5.5634    0.0433   18.2022 N   0  0  0  0  0  0  0  0  0  0  0  0
    6.8670   -0.1907   18.9063 C   0  0  0  0  0  0  0  0  0  0  0  0
    7.1650    0.5255   20.1902 N   0  0  0  0  0  0  0  0  0  0  0  0
 29 30  1  0  0  0
 30 31  1  0  0  0
 31 32  2  0  0  0
 31 28  1  0  0  0
 28  1  1  0  0  0
  1  2  1  0  0  0
  3  2  1  0  0  0
  3  4  1  0  0  0
  4  5  2  0  0  0
  4  6  1  0  0  0
  6 18  1  0  0  0
 18 19  2  0  0  0
 19 20  1  0  0  0
 20 21  2  0  0  0
 21 22  1  0  0  0
 22 23  2  0  0  0
 23 24  1  0  0  0
 24 25  2  0  0  0
 25 26  1  0  0  0
 26 27  2  0  0  0
  6  7  1  0  0  0
  7  8  1  0  0  0
  8 34  1  0  0  0
 34 35  1  0  0  0
 35 37  1  0  0  0
 37 38  2  0  0  0
 38 39  1  0  0  0
 39 40  2  0  0  0
 40 41  1  0  0  0
 41 42  2  0  0  0
  3  9  1  0  0  0
  9 10  2  0  0  0
 10 11  1  0  0  0
 11 12  1  0  0  0
 11 13  2  0  0  0
 13 14  1  0  0  0
 14 15  2  0  0  0
 15 16  1  0  0  0
 16 17  2  0  0  0
 16  1  1  0  0  0
  8  3  1  0  0  0
 42 37  1  0  0  0
 15  9  1  0  0  0
 27 18  1  0  0  0
 27 22  1  0  0  0
 30 33  1  0  0  0
 35 36  1  0  0  0
M  END
> <minimizedAffinity>
-9.28121

> <CNNscore>
0.1700737178

> <CNNaffinity>
7.0161552429

> <CNN_VS>
1.1932636499

> <CNNaffinity_variance>
0.1068688631

$$$$



 42 47  0  0  0  0  0  0  0  0999 V2000
   10.0362    0.4415   22.8035 N   0  0  0  0  0  0  0  0  0  0  0  0
    8.8716   -0.4913   22.6495 C   0  0  0  0  0  0  0  0  0  0  0  0
    8.8137   -1.7574   23.4516 C   0  0  0  0  0  0  0  0  0  0  0  0
    8.6190   -3.0529   24.1824 C   0  0  0  0  0  0  0  0  0  0  0  0
    9.1741   -3.7465   25.0113 O   0  0  0  0  0  0  0  0  0  0  0  0
    7.3244   -3.6546   23.7222 N   0  0  0  0  0  0  0  0  0  0  0  0
    6.7189   -2.7311   22.7071 C   0  0  0  0  0  0  0  0  0  0  0  0
    7.6393   -1.5586   22.5399 C   0  0  0  0  0  0  0  0  0  0  0  0
    9.9204   -2.0909   24.4078 C   0  0  0  0  0  0  0  0  0  0  0  0
    9.8625   -3.3570   25.2099 C   0  0  0  0  0  0  0  0  0  0  0  0
   10.9691   -3.6904   26.1660 C   0  0  0  0  0  0  0  0  0  0  0  0
   10.9112   -4.9566   26.9682 Cl  0  0  0  0  0  0  0  0  0  0  0  0
   12.1336   -2.7576   26.3200 C   0  0  0  0  0  0  0  0  0  0  0  0
   12.1915   -1.4914   25.5179 C   0  0  0  0  0  0  0  0  0  0  0  0
   11.0849   -1.1581   24.5618 C   0  0  0  0  0  0  0  0  0  0  0  0
   11.1428    0.1082   23.7596 C   0  0  0  0  0  0  0  0  0  0  0  0
   12.3073    1.0410   23.9137 O   0  0  0  0  0  0  0  0  0  0  0  0
    6.7382   -4.9521   24.1943 C   0  0  0  0  0  0  0  0  0  0  0  0
    7.2747   -6.2518   23.6718 C   0  0  0  0  0  0  0  0  0  0  0  0
    6.6885   -7.5493   24.1439 N   0  0  0  0  0  0  0  0  0  0  0  0
    5.5657   -7.5471   25.1385 C   0  0  0  0  0  0  0  0  0  0  0  0
    5.0292   -6.2474   25.6610 C   0  0  0  0  0  0  0  0  0  0  0  0
    3.9063   -6.2453   26.6557 C   0  0  0  0  0  0  0  0  0  0  0  0
    3.3698   -4.9456   27.1782 C   0  0  0  0  0  0  0  0  0  0  0  0
    3.9560   -3.6481   26.7061 C   0  0  0  0  0  0  0  0  0  0  0  0
    5.0788   -3.6503   25.7115 C   0  0  0  0  0  0  0  0  0  0  0  0
    5.6154   -4.9500   25.1889 C   0  0  0  0  0  0  0  0  0  0  0  0
   10.0940    1.7078   22.0014 C   0  0  0  0  0  0  0  0  0  0  0  0
   10.5092    5.4979   23.1026 C   0  0  0  0  0  0  0  0  0  0  0  0
   10.7700    4.1777   22.4399 N   0  0  0  0  0  0  0  0  0  0  0  0
    9.8332    3.0279   22.6640 C   0  0  0  0  0  0  0  0  0  0  0  0
    8.6354    3.1983   23.5508 O   0  0  0  0  0  0  0  0  0  0  0  0
   11.5562    4.0659   21.8579 H   0  0  0  0  0  0  0  0  0  0  0  0
    7.4233   -0.3920   21.6220 C   0  0  0  0  0  0  0  0  0  0  0  0
    6.6809   -0.5798   20.3323 N   0  0  0  0  0  0  0  0  0  0  0  0
    6.9881   -1.2508   19.6807 H   0  0  0  0  0  0  0  0  0  0  0  0
    5.4704    0.2547   20.0353 C   0  0  0  0  0  0  0  0  0  0  0  0
    5.2026    0.7152   18.6331 C   0  0  0  0  0  0  0  0  0  0  0  0
    3.9921    1.5497   18.3361 C   0  0  0  0  0  0  0  0  0  0  0  0
    3.0493    1.9237   19.4412 N   0  0  0  0  0  0  0  0  0  0  0  0
    3.3171    1.4631   20.8434 C   0  0  0  0  0  0  0  0  0  0  0  0
    4.5276    0.6286   21.1404 N   0  0  0  0  0  0  0  0  0  0  0  0
 29 30  1  0  0  0
 30 31  1  0  0  0
 31 32  2  0  0  0
 31 28  1  0  0  0
 28  1  1  0  0  0
  1  2  1  0  0  0
  3  2  1  0  0  0
  3  4  1  0  0  0
  4  5  2  0  0  0
  4  6  1  0  0  0
  6 18  1  0  0  0
 18 19  2  0  0  0
 19 20  1  0  0  0
 20 21  2  0  0  0
 21 22  1  0  0  0
 22 23  2  0  0  0
 23 24  1  0  0  0
 24 25  2  0  0  0
 25 26  1  0  0  0
 26 27  2  0  0  0
  6  7  1  0  0  0
  7  8  1  0  0  0
  8 34  1  0  0  0
 34 35  1  0  0  0
 35 37  1  0  0  0
 37 38  2  0  0  0
 38 39  1  0  0  0
 39 40  2  0  0  0
 40 41  1  0  0  0
 41 42  2  0  0  0
  3  9  1  0  0  0
  9 10  2  0  0  0
 10 11  1  0  0  0
 11 12  1  0  0  0
 11 13  2  0  0  0
 13 14  1  0  0  0
 14 15  2  0  0  0
 15 16  1  0  0  0
 16 17  2  0  0  0
 16  1  1  0  0  0
  8  3  1  0  0  0
 42 37  1  0  0  0
 15  9  1  0  0  0
 27 18  1  0  0  0
 27 22  1  0  0  0
 30 33  1  0  0  0
 35 36  1  0  0  0
M  END
> <minimizedAffinity>
-9.06229

> <CNNscore>
0.1638045013

> <CNNaffinity>
6.8576078415

> <CNN_VS>
1.1233069897

> <CNNaffinity_variance>
0.1579847336

$$$$



 42 47  0  0  0  0  0  0  0  0999 V2000
   10.6417    1.5113   22.8163 N   0  0  0  0  0  0  0  0  0  0  0  0
    9.2443    1.1601   23.2334 C   0  0  0  0  0  0  0  0  0  0  0  0
    9.0067    0.0089   24.1652 C   0  0  0  0  0  0  0  0  0  0  0  0
    8.6160   -1.1089   25.0860 C   0  0  0  0  0  0  0  0  0  0  0  0
    9.1251   -1.9995   25.7372 O   0  0  0  0  0  0  0  0  0  0  0  0
    7.1225   -1.0948   25.2246 N   0  0  0  0  0  0  0  0  0  0  0  0
    6.5901    0.0318   24.3896 C   0  0  0  0  0  0  0  0  0  0  0  0
    7.7546    0.7139   23.7348 C   0  0  0  0  0  0  0  0  0  0  0  0
   10.1665   -0.7912   24.6798 C   0  0  0  0  0  0  0  0  0  0  0  0
    9.9288   -1.9424   25.6116 C   0  0  0  0  0  0  0  0  0  0  0  0
   11.0886   -2.7425   26.1262 C   0  0  0  0  0  0  0  0  0  0  0  0
   10.8510   -3.8937   27.0580 Cl  0  0  0  0  0  0  0  0  0  0  0  0
   12.4860   -2.3913   25.7091 C   0  0  0  0  0  0  0  0  0  0  0  0
   12.7236   -1.2401   24.7773 C   0  0  0  0  0  0  0  0  0  0  0  0
   11.5638   -0.4401   24.2627 C   0  0  0  0  0  0  0  0  0  0  0  0
   11.8014    0.7112   23.3309 C   0  0  0  0  0  0  0  0  0  0  0  0
   13.1988    1.0624   22.9137 O   0  0  0  0  0  0  0  0  0  0  0  0
    6.3050   -2.0411   26.0530 C   0  0  0  0  0  0  0  0  0  0  0  0
    6.0582   -3.4396   25.5699 C   0  0  0  0  0  0  0  0  0  0  0  0
    5.2407   -4.3859   26.3983 N   0  0  0  0  0  0  0  0  0  0  0  0
    4.6699   -3.9337   27.7096 C   0  0  0  0  0  0  0  0  0  0  0  0
    4.9166   -2.5352   28.1927 C   0  0  0  0  0  0  0  0  0  0  0  0
    4.3458   -2.0830   29.5041 C   0  0  0  0  0  0  0  0  0  0  0  0
    4.5926   -0.6845   29.9871 C   0  0  0  0  0  0  0  0  0  0  0  0
    5.4102    0.2618   29.1587 C   0  0  0  0  0  0  0  0  0  0  0  0
    5.9809   -0.1904   27.8474 C   0  0  0  0  0  0  0  0  0  0  0  0
    5.7342   -1.5889   27.3643 C   0  0  0  0  0  0  0  0  0  0  0  0
   10.8793    2.6625   21.8845 C   0  0  0  0  0  0  0  0  0  0  0  0
   10.6866    6.3146   23.4257 C   0  0  0  0  0  0  0  0  0  0  0  0
   10.2652    4.9825   22.8798 N   0  0  0  0  0  0  0  0  0  0  0  0
   11.3006    3.9946   22.4304 C   0  0  0  0  0  0  0  0  0  0  0  0
   12.7575    4.3388   22.5270 O   0  0  0  0  0  0  0  0  0  0  0  0
    9.3091    4.7566   22.8164 H   0  0  0  0  0  0  0  0  0  0  0  0
    7.6800    1.8938   22.8117 C   0  0  0  0  0  0  0  0  0  0  0  0
    6.4167    2.1741   22.0532 N   0  0  0  0  0  0  0  0  0  0  0  0
    5.7691    2.8291   22.4005 H   0  0  0  0  0  0  0  0  0  0  0  0
    6.1402    1.4563   20.7654 C   0  0  0  0  0  0  0  0  0  0  0  0
    4.8413    1.6764   20.0481 C   0  0  0  0  0  0  0  0  0  0  0  0
    4.5647    0.9587   18.7604 C   0  0  0  0  0  0  0  0  0  0  0  0
    5.5870    0.0208   18.1899 N   0  0  0  0  0  0  0  0  0  0  0  0
    6.8858   -0.1992   18.9071 C   0  0  0  0  0  0  0  0  0  0  0  0
    7.1624    0.5186   20.1949 N   0  0  0  0  0  0  0  0  0  0  0  0
 29 30  1  0  0  0
 30 31  1  0  0  0
 31 32  2  0  0  0
 31 28  1  0  0  0
 28  1  1  0  0  0
  1  2  1  0  0  0
  3  2  1  0  0  0
  3  4  1  0  0  0
  4  5  2  0  0  0
  4  6  1  0  0  0
  6 18  1  0  0  0
 18 19  2  0  0  0
 19 20  1  0  0  0
 20 21  2  0  0  0
 21 22  1  0  0  0
 22 23  2  0  0  0
 23 24  1  0  0  0
 24 25  2  0  0  0
 25 26  1  0  0  0
 26 27  2  0  0  0
  6  7  1  0  0  0
  7  8  1  0  0  0
  8 34  1  0  0  0
 34 35  1  0  0  0
 35 37  1  0  0  0
 37 38  2  0  0  0
 38 39  1  0  0  0
 39 40  2  0  0  0
 40 41  1  0  0  0
 41 42  2  0  0  0
  3  9  1  0  0  0
  9 10  2  0  0  0
 10 11  1  0  0  0
 11 12  1  0  0  0
 11 13  2  0  0  0
 13 14  1  0  0  0
 14 15  2  0  0  0
 15 16  1  0  0  0
 16 17  2  0  0  0
 16  1  1  0  0  0
  8  3  1  0  0  0
 42 37  1  0  0  0
 15  9  1  0  0  0
 27 18  1  0  0  0
 27 22  1  0  0  0
 30 33  1  0  0  0
 35 36  1  0  0  0
M  END
> <minimizedAffinity>
-8.90752

> <CNNscore>
0.1583033800

> <CNNaffinity>
6.8437719345

> <CNN_VS>
1.0833922625

> <CNNaffinity_variance>
0.1132699475

$$$$



 42 47  0  0  0  0  0  0  0  0999 V2000
    6.4634   -2.5480   24.4976 N   0  0  0  0  0  0  0  0  0  0  0  0
    6.6110   -1.1454   23.9868 C   0  0  0  0  0  0  0  0  0  0  0  0
    7.9699   -0.5151   23.9077 C   0  0  0  0  0  0  0  0  0  0  0  0
    9.2571    0.2430   23.7722 C   0  0  0  0  0  0  0  0  0  0  0  0
   10.4478    0.0975   23.9656 O   0  0  0  0  0  0  0  0  0  0  0  0
    8.9390    1.6023   23.2235 N   0  0  0  0  0  0  0  0  0  0  0  0
    7.4551    1.6843   23.0198 C   0  0  0  0  0  0  0  0  0  0  0  0
    6.8562    0.3757   23.4427 C   0  0  0  0  0  0  0  0  0  0  0  0
    9.1812   -1.2875   24.3395 C   0  0  0  0  0  0  0  0  0  0  0  0
   10.5400   -0.6572   24.2605 C   0  0  0  0  0  0  0  0  0  0  0  0
   11.7512   -1.4295   24.6922 C   0  0  0  0  0  0  0  0  0  0  0  0
   13.1101   -0.7992   24.6132 Cl  0  0  0  0  0  0  0  0  0  0  0  0
   11.6035   -2.8321   25.2031 C   0  0  0  0  0  0  0  0  0  0  0  0
   10.2447   -3.4624   25.2821 C   0  0  0  0  0  0  0  0  0  0  0  0
    9.0335   -2.6900   24.8503 C   0  0  0  0  0  0  0  0  0  0  0  0
    7.6746   -3.3203   24.9294 C   0  0  0  0  0  0  0  0  0  0  0  0
    7.5270   -4.7229   25.4402 O   0  0  0  0  0  0  0  0  0  0  0  0
    9.9306    2.6888   22.9299 C   0  0  0  0  0  0  0  0  0  0  0  0
   11.3397    2.3369   22.5549 C   0  0  0  0  0  0  0  0  0  0  0  0
   12.3313    3.4234   22.2614 N   0  0  0  0  0  0  0  0  0  0  0  0
   11.9139    4.8618   22.3429 C   0  0  0  0  0  0  0  0  0  0  0  0
   10.5048    5.2137   22.7179 C   0  0  0  0  0  0  0  0  0  0  0  0
   10.0873    6.6522   22.7994 C   0  0  0  0  0  0  0  0  0  0  0  0
    8.6782    7.0040   23.1744 C   0  0  0  0  0  0  0  0  0  0  0  0
    7.6866    5.9175   23.4679 C   0  0  0  0  0  0  0  0  0  0  0  0
    8.1040    4.4791   23.3864 C   0  0  0  0  0  0  0  0  0  0  0  0
    9.5131    4.1272   23.0114 C   0  0  0  0  0  0  0  0  0  0  0  0
    5.1045   -3.1783   24.5766 C   0  0  0  0  0  0  0  0  0  0  0  0
    4.7445   -4.0639   28.4284 C   0  0  0  0  0  0  0  0  0  0  0  0
    5.1837   -3.3845   27.1653 N   0  0  0  0  0  0  0  0  0  0  0  0
    4.6652   -3.8577   25.8397 C   0  0  0  0  0  0  0  0  0  0  0  0
    3.7073   -5.0104   25.7772 O   0  0  0  0  0  0  0  0  0  0  0  0
    5.8124   -2.6280   27.2063 H   0  0  0  0  0  0  0  0  0  0  0  0
    5.3993    0.0203   23.4069 C   0  0  0  0  0  0  0  0  0  0  0  0
    4.8175   -0.6376   22.1909 N   0  0  0  0  0  0  0  0  0  0  0  0
    4.1197   -1.3250   22.2896 H   0  0  0  0  0  0  0  0  0  0  0  0
    5.2987   -0.2481   20.8247 C   0  0  0  0  0  0  0  0  0  0  0  0
    4.4928    0.7008   19.9879 C   0  0  0  0  0  0  0  0  0  0  0  0
    4.9740    1.0903   18.6217 C   0  0  0  0  0  0  0  0  0  0  0  0
    6.2612    0.5309   18.0921 N   0  0  0  0  0  0  0  0  0  0  0  0
    7.0671   -0.4179   18.9289 C   0  0  0  0  0  0  0  0  0  0  0  0
    6.5859   -0.8074   20.2952 N   0  0  0  0  0  0  0  0  0  0  0  0
 29 30  1  0  0  0
 30 31  1  0  0  0
 31 32  2  0  0  0
 31 28  1  0  0  0
 28  1  1  0  0  0
  1  2  1  0  0  0
  3  2  1  0  0  0
  3  4  1  0  0  0
  4  5  2  0  0  0
  4  6  1  0  0  0
  6 18  1  0  0  0
 18 19  2  0  0  0
 19 20  1  0  0  0
 20 21  2  0  0  0
 21 22  1  0  0  0
 22 23  2  0  0  0
 23 24  1  0  0  0
 24 25  2  0  0  0
 25 26  1  0  0  0
 26 27  2  0  0  0
  6  7  1  0  0  0
  7  8  1  0  0  0
  8 34  1  0  0  0
 34 35  1  0  0  0
 35 37  1  0  0  0
 37 38  2  0  0  0
 38 39  1  0  0  0
 39 40  2  0  0  0
 40 41  1  0  0  0
 41 42  2  0  0  0
  3  9  1  0  0  0
  9 10  2  0  0  0
 10 11  1  0  0  0
 11 12  1  0  0  0
 11 13  2  0  0  0
 13 14  1  0  0  0
 14 15  2  0  0  0
 15 16  1  0  0  0
 16 17  2  0  0  0
 16  1  1  0  0  0
  8  3  1  0  0  0
 42 37  1  0  0  0
 15  9  1  0  0  0
 27 18  1  0  0  0
 27 22  1  0  0  0
 30 33  1  0  0  0
 35 36  1  0  0  0
M  END
> <minimizedAffinity>
-7.72837

> <CNNscore>
0.1209944785

> <CNNaffinity>
6.6122841835

> <CNN_VS>
0.8000499010

> <CNNaffinity_variance>
0.1283488721

$$$$
