


 39 44  0  0  0  0  0  0  0  0999 V2000
    9.4085    0.7793   23.0456 N   0  0  0  0  0  0  0  0  0  0  0  0
    8.2589   -0.1805   22.9612 C   0  0  0  0  0  0  0  0  0  0  0  0
    8.3428   -1.5132   23.6445 C   0  0  0  0  0  0  0  0  0  0  0  0
    8.2824   -2.8740   24.2726 C   0  0  0  0  0  0  0  0  0  0  0  0
    8.9620   -3.6155   24.9543 O   0  0  0  0  0  0  0  0  0  0  0  0
    6.9540   -3.4826   23.9335 N   0  0  0  0  0  0  0  0  0  0  0  0
    6.1934   -2.4979   23.0958 C   0  0  0  0  0  0  0  0  0  0  0  0
    7.0517   -1.2808   22.9172 C   0  0  0  0  0  0  0  0  0  0  0  0
    9.5764   -1.8861   24.4122 C   0  0  0  0  0  0  0  0  0  0  0  0
    9.6603   -3.2188   25.0955 C   0  0  0  0  0  0  0  0  0  0  0  0
   10.8938   -3.5916   25.8631 C   0  0  0  0  0  0  0  0  0  0  0  0
   10.9778   -4.9244   26.5464 Cl  0  0  0  0  0  0  0  0  0  0  0  0
   12.0435   -2.6318   25.9475 C   0  0  0  0  0  0  0  0  0  0  0  0
   11.9595   -1.2991   25.2642 C   0  0  0  0  0  0  0  0  0  0  0  0
   10.7260   -0.9263   24.4966 C   0  0  0  0  0  0  0  0  0  0  0  0
   10.6420    0.4064   23.8132 C   0  0  0  0  0  0  0  0  0  0  0  0
   11.7917    1.3663   23.8976 O   0  0  0  0  0  0  0  0  0  0  0  0
    6.4711   -4.8379   24.3577 C   0  0  0  0  0  0  0  0  0  0  0  0
    7.0503   -6.0709   23.7298 C   0  0  0  0  0  0  0  0  0  0  0  0
    6.5674   -7.4262   24.1539 N   0  0  0  0  0  0  0  0  0  0  0  0
    5.5052   -7.5485   25.2060 C   0  0  0  0  0  0  0  0  0  0  0  0
    4.9260   -6.3155   25.8339 C   0  0  0  0  0  0  0  0  0  0  0  0
    3.8638   -6.4378   26.8860 C   0  0  0  0  0  0  0  0  0  0  0  0
    3.2847   -5.2048   27.5139 C   0  0  0  0  0  0  0  0  0  0  0  0
    3.7676   -3.8495   27.0897 C   0  0  0  0  0  0  0  0  0  0  0  0
    4.8297   -3.7272   26.0377 C   0  0  0  0  0  0  0  0  0  0  0  0
    5.4089   -4.9602   25.4097 C   0  0  0  0  0  0  0  0  0  0  0  0
    9.3245    2.1120   22.3623 C   0  0  0  0  0  0  0  0  0  0  0  0
    8.5547    5.7910   23.6361 C   0  0  0  0  0  0  0  0  0  0  0  0
    9.2335    4.6401   22.9544 N   0  0  0  0  0  0  0  0  0  0  0  0
    8.6458    3.2629   23.0440 C   0  0  0  0  0  0  0  0  0  0  0  0
    7.3793    3.0366   23.8153 O   0  0  0  0  0  0  0  0  0  0  0  0
   10.0647    4.7886   22.4482 H   0  0  0  0  0  0  0  0  0  0  0  0
    6.6835   -0.0476   22.1466 C   0  0  0  0  0  0  0  0  0  0  0  0
    6.3432   -0.1477   20.6892 N   0  0  0  0  0  0  0  0  0  0  0  0
    5.4394   -1.1680   20.0629 C   0  0  0  0  0  0  0  0  0  0  0  0
    5.3846   -0.8959   18.5888 C   0  0  0  0  0  0  0  0  0  0  0  0
    6.2544    0.2925   18.3040 C   0  0  0  0  0  0  0  0  0  0  0  0
    6.8468    0.7549   19.6021 N   0  0  0  0  0  0  0  0  0  0  0  0
 29 30  1  0  0  0
 30 31  1  0  0  0
 31 32  2  0  0  0
 31 28  1  0  0  0
 28  1  1  0  0  0
  1  2  1  0  0  0
  3  2  1  0  0  0
  3  4  1  0  0  0
  4  5  2  0  0  0
  4  6  1  0  0  0
  6 18  1  0  0  0
 18 19  2  0  0  0
 19 20  1  0  0  0
 20 21  2  0  0  0
 21 22  1  0  0  0
 22 23  2  0  0  0
 23 24  1  0  0  0
 24 25  2  0  0  0
 25 26  1  0  0  0
 26 27  2  0  0  0
  6  7  1  0  0  0
  7  8  1  0  0  0
  8 34  1  0  0  0
 34 35  1  0  0  0
 35 36  1  0  0  0
 36 37  2  0  0  0
 37 38  1  0  0  0
 38 39  2  0  0  0
  3  9  1  0  0  0
  9 10  2  0  0  0
 10 11  1  0  0  0
 11 12  1  0  0  0
 11 13  2  0  0  0
 13 14  1  0  0  0
 14 15  2  0  0  0
 15 16  1  0  0  0
 16 17  2  0  0  0
 16  1  1  0  0  0
  8  3  1  0  0  0
 39 35  1  0  0  0
 15  9  1  0  0  0
 27 18  1  0  0  0
 27 22  1  0  0  0
 30 33  1  0  0  0
M  END
> <minimizedAffinity>
-8.92750

> <CNNscore>
0.2636426091

> <CNNaffinity>
6.7833328247

> <CNN_VS>
1.7883756161

> <CNNaffinity_variance>
0.2464223653

$$$$



 39 44  0  0  0  0  0  0  0  0999 V2000
    9.9362    0.4582   22.7277 N   0  0  0  0  0  0  0  0  0  0  0  0
    8.7742   -0.4796   22.5861 C   0  0  0  0  0  0  0  0  0  0  0  0
    8.7295   -1.7451   23.3901 C   0  0  0  0  0  0  0  0  0  0  0  0
    8.5474   -3.0406   24.1241 C   0  0  0  0  0  0  0  0  0  0  0  0
    9.1135   -3.7309   24.9483 O   0  0  0  0  0  0  0  0  0  0  0  0
    7.2509   -3.6483   23.6773 N   0  0  0  0  0  0  0  0  0  0  0  0
    6.6316   -2.7285   22.6672 C   0  0  0  0  0  0  0  0  0  0  0  0
    7.5454   -1.5523   22.4897 C   0  0  0  0  0  0  0  0  0  0  0  0
    9.8469   -2.0729   24.3358 C   0  0  0  0  0  0  0  0  0  0  0  0
    9.8022   -3.3384   25.1397 C   0  0  0  0  0  0  0  0  0  0  0  0
   10.9195   -3.6660   26.0853 C   0  0  0  0  0  0  0  0  0  0  0  0
   10.8748   -4.9316   26.8893 Cl  0  0  0  0  0  0  0  0  0  0  0  0
   12.0815   -2.7281   26.2269 C   0  0  0  0  0  0  0  0  0  0  0  0
   12.1263   -1.4626   25.4229 C   0  0  0  0  0  0  0  0  0  0  0  0
   11.0089   -1.1350   24.4773 C   0  0  0  0  0  0  0  0  0  0  0  0
   11.0536    0.1306   23.6733 C   0  0  0  0  0  0  0  0  0  0  0  0
   12.2156    1.0685   23.8149 O   0  0  0  0  0  0  0  0  0  0  0  0
    6.6748   -4.9477   24.1565 C   0  0  0  0  0  0  0  0  0  0  0  0
    7.2125   -6.2457   23.6310 C   0  0  0  0  0  0  0  0  0  0  0  0
    6.6365   -7.5451   24.1102 N   0  0  0  0  0  0  0  0  0  0  0  0
    5.5227   -7.5466   25.1149 C   0  0  0  0  0  0  0  0  0  0  0  0
    4.9850   -6.2486   25.6404 C   0  0  0  0  0  0  0  0  0  0  0  0
    3.8711   -6.2501   26.6452 C   0  0  0  0  0  0  0  0  0  0  0  0
    3.3334   -4.9520   27.1706 C   0  0  0  0  0  0  0  0  0  0  0  0
    3.9095   -3.6526   26.6914 C   0  0  0  0  0  0  0  0  0  0  0  0
    5.0233   -3.6512   25.6867 C   0  0  0  0  0  0  0  0  0  0  0  0
    5.5610   -4.9492   25.1612 C   0  0  0  0  0  0  0  0  0  0  0  0
    9.9809    1.7238   21.9237 C   0  0  0  0  0  0  0  0  0  0  0  0
   10.4736    5.5085   23.0116 C   0  0  0  0  0  0  0  0  0  0  0  0
   10.6986    4.1856   22.3411 N   0  0  0  0  0  0  0  0  0  0  0  0
    9.7559    3.0466   22.5942 C   0  0  0  0  0  0  0  0  0  0  0  0
    8.5883    3.2304   23.5178 O   0  0  0  0  0  0  0  0  0  0  0  0
   11.4649    4.0650   21.7349 H   0  0  0  0  0  0  0  0  0  0  0  0
    7.3155   -0.3876   21.5728 C   0  0  0  0  0  0  0  0  0  0  0  0
    5.9533    0.2326   21.4752 N   0  0  0  0  0  0  0  0  0  0  0  0
    4.9616    0.3626   22.5931 C   0  0  0  0  0  0  0  0  0  0  0  0
    3.7390    1.0421   22.0515 C   0  0  0  0  0  0  0  0  0  0  0  0
    3.9750    1.3322   20.5988 C   0  0  0  0  0  0  0  0  0  0  0  0
    5.3435    0.8319   20.2427 N   0  0  0  0  0  0  0  0  0  0  0  0
 29 30  1  0  0  0
 30 31  1  0  0  0
 31 32  2  0  0  0
 31 28  1  0  0  0
 28  1  1  0  0  0
  1  2  1  0  0  0
  3  2  1  0  0  0
  3  4  1  0  0  0
  4  5  2  0  0  0
  4  6  1  0  0  0
  6 18  1  0  0  0
 18 19  2  0  0  0
 19 20  1  0  0  0
 20 21  2  0  0  0
 21 22  1  0  0  0
 22 23  2  0  0  0
 23 24  1  0  0  0
 24 25  2  0  0  0
 25 26  1  0  0  0
 26 27  2  0  0  0
  6  7  1  0  0  0
  7  8  1  0  0  0
  8 34  1  0  0  0
 34 35  1  0  0  0
 35 36  1  0  0  0
 36 37  2  0  0  0
 37 38  1  0  0  0
 38 39  2  0  0  0
  3  9  1  0  0  0
  9 10  2  0  0  0
 10 11  1  0  0  0
 11 12  1  0  0  0
 11 13  2  0  0  0
 13 14  1  0  0  0
 14 15  2  0  0  0
 15 16  1  0  0  0
 16 17  2  0  0  0
 16  1  1  0  0  0
  8  3  1  0  0  0
 39 35  1  0  0  0
 15  9  1  0  0  0
 27 18  1  0  0  0
 27 22  1  0  0  0
 30 33  1  0  0  0
M  END
> <minimizedAffinity>
-8.48974

> <CNNscore>
0.2281978279

> <CNNaffinity>
6.8035135269

> <CNN_VS>
1.5525469780

> <CNNaffinity_variance>
0.2135539949

$$$$



 39 44  0  0  0  0  0  0  0  0999 V2000
   10.6169    1.4228   22.8456 N   0  0  0  0  0  0  0  0  0  0  0  0
    9.2204    1.0672   23.2621 C   0  0  0  0  0  0  0  0  0  0  0  0
    8.9875   -0.0724   24.2091 C   0  0  0  0  0  0  0  0  0  0  0  0
    8.6013   -1.1800   25.1441 C   0  0  0  0  0  0  0  0  0  0  0  0
    9.1144   -2.0574   25.8100 O   0  0  0  0  0  0  0  0  0  0  0  0
    7.1072   -1.1750   25.2766 N   0  0  0  0  0  0  0  0  0  0  0  0
    6.5699   -0.0644   24.4235 C   0  0  0  0  0  0  0  0  0  0  0  0
    7.7320    0.6170   23.7638 C   0  0  0  0  0  0  0  0  0  0  0  0
   10.1510   -0.8565   24.7397 C   0  0  0  0  0  0  0  0  0  0  0  0
    9.9181   -1.9961   25.6868 C   0  0  0  0  0  0  0  0  0  0  0  0
   11.0816   -2.7801   26.2173 C   0  0  0  0  0  0  0  0  0  0  0  0
   10.8487   -3.9198   27.1644 Cl  0  0  0  0  0  0  0  0  0  0  0  0
   12.4781   -2.4245   25.8008 C   0  0  0  0  0  0  0  0  0  0  0  0
   12.7110   -1.2849   24.8538 C   0  0  0  0  0  0  0  0  0  0  0  0
   11.5475   -0.5009   24.3232 C   0  0  0  0  0  0  0  0  0  0  0  0
   11.7804    0.6388   23.3761 C   0  0  0  0  0  0  0  0  0  0  0  0
   13.1768    0.9944   22.9596 O   0  0  0  0  0  0  0  0  0  0  0  0
    6.2933   -2.1155   26.1151 C   0  0  0  0  0  0  0  0  0  0  0  0
    6.0385   -3.5152   25.6395 C   0  0  0  0  0  0  0  0  0  0  0  0
    5.2246   -4.4557   26.4779 N   0  0  0  0  0  0  0  0  0  0  0  0
    4.6655   -3.9966   27.7919 C   0  0  0  0  0  0  0  0  0  0  0  0
    4.9202   -2.5970   28.2674 C   0  0  0  0  0  0  0  0  0  0  0  0
    4.3610   -2.1378   29.5815 C   0  0  0  0  0  0  0  0  0  0  0  0
    4.6158   -0.7382   30.0570 C   0  0  0  0  0  0  0  0  0  0  0  0
    5.4297    0.2023   29.2185 C   0  0  0  0  0  0  0  0  0  0  0  0
    5.9889   -0.2568   27.9046 C   0  0  0  0  0  0  0  0  0  0  0  0
    5.7341   -1.6564   27.4290 C   0  0  0  0  0  0  0  0  0  0  0  0
   10.8498    2.5625   21.8985 C   0  0  0  0  0  0  0  0  0  0  0  0
   10.7201    6.2369   23.3925 C   0  0  0  0  0  0  0  0  0  0  0  0
   10.2759    4.9039   22.8671 N   0  0  0  0  0  0  0  0  0  0  0  0
   11.2939    3.8955   22.4238 C   0  0  0  0  0  0  0  0  0  0  0  0
   12.7562    4.2199   22.5059 O   0  0  0  0  0  0  0  0  0  0  0  0
    9.3162    4.6910   22.8133 H   0  0  0  0  0  0  0  0  0  0  0  0
    7.6525    1.7832   22.8237 C   0  0  0  0  0  0  0  0  0  0  0  0
    6.5979    1.8167   21.7577 N   0  0  0  0  0  0  0  0  0  0  0  0
    5.3011    2.5678   21.8237 C   0  0  0  0  0  0  0  0  0  0  0  0
    4.5566    2.3203   20.5452 C   0  0  0  0  0  0  0  0  0  0  0  0
    5.3932    1.4164   19.6891 C   0  0  0  0  0  0  0  0  0  0  0  0
    6.6547    1.1051   20.4385 N   0  0  0  0  0  0  0  0  0  0  0  0
 29 30  1  0  0  0
 30 31  1  0  0  0
 31 32  2  0  0  0
 31 28  1  0  0  0
 28  1  1  0  0  0
  1  2  1  0  0  0
  3  2  1  0  0  0
  3  4  1  0  0  0
  4  5  2  0  0  0
  4  6  1  0  0  0
  6 18  1  0  0  0
 18 19  2  0  0  0
 19 20  1  0  0  0
 20 21  2  0  0  0
 21 22  1  0  0  0
 22 23  2  0  0  0
 23 24  1  0  0  0
 24 25  2  0  0  0
 25 26  1  0  0  0
 26 27  2  0  0  0
  6  7  1  0  0  0
  7  8  1  0  0  0
  8 34  1  0  0  0
 34 35  1  0  0  0
 35 36  1  0  0  0
 36 37  2  0  0  0
 37 38  1  0  0  0
 38 39  2  0  0  0
  3  9  1  0  0  0
  9 10  2  0  0  0
 10 11  1  0  0  0
 11 12  1  0  0  0
 11 13  2  0  0  0
 13 14  1  0  0  0
 14 15  2  0  0  0
 15 16  1  0  0  0
 16 17  2  0  0  0
 16  1  1  0  0  0
  8  3  1  0  0  0
 39 35  1  0  0  0
 15  9  1  0  0  0
 27 18  1  0  0  0
 27 22  1  0  0  0
 30 33  1  0  0  0
M  END
> <minimizedAffinity>
-8.07486

> <CNNscore>
0.2220528573

> <CNNaffinity>
6.7853507996

> <CNN_VS>
1.5067064762

> <CNNaffinity_variance>
0.1815565974

$$$$



 39 44  0  0  0  0  0  0  0  0999 V2000
    5.8990    3.3256   22.6724 N   0  0  0  0  0  0  0  0  0  0  0  0
    6.7283    2.0759   22.6511 C   0  0  0  0  0  0  0  0  0  0  0  0
    7.0689    1.3798   23.9353 C   0  0  0  0  0  0  0  0  0  0  0  0
    7.4872    0.5786   25.1325 C   0  0  0  0  0  0  0  0  0  0  0  0
    7.3712    0.5827   26.3420 O   0  0  0  0  0  0  0  0  0  0  0  0
    8.3024   -0.5845   24.6501 N   0  0  0  0  0  0  0  0  0  0  0  0
    8.3879   -0.5021   23.1548 C   0  0  0  0  0  0  0  0  0  0  0  0
    7.6256    0.7118   22.7131 C   0  0  0  0  0  0  0  0  0  0  0  0
    6.5801    1.9333   25.2410 C   0  0  0  0  0  0  0  0  0  0  0  0
    6.9207    1.2372   26.5253 C   0  0  0  0  0  0  0  0  0  0  0  0
    6.4320    1.7908   27.8309 C   0  0  0  0  0  0  0  0  0  0  0  0
    6.7726    1.0946   29.1152 Cl  0  0  0  0  0  0  0  0  0  0  0  0
    5.6026    3.0404   27.8522 C   0  0  0  0  0  0  0  0  0  0  0  0
    5.2620    3.7366   26.5680 C   0  0  0  0  0  0  0  0  0  0  0  0
    5.7508    3.1830   25.2624 C   0  0  0  0  0  0  0  0  0  0  0  0
    5.4102    3.8792   23.9781 C   0  0  0  0  0  0  0  0  0  0  0  0
    4.5809    5.1289   23.9994 O   0  0  0  0  0  0  0  0  0  0  0  0
    8.9230   -1.6439   25.5118 C   0  0  0  0  0  0  0  0  0  0  0  0
    8.0518   -2.5553   26.3244 C   0  0  0  0  0  0  0  0  0  0  0  0
    8.6725   -3.6147   27.1860 N   0  0  0  0  0  0  0  0  0  0  0  0
   10.1644   -3.7627   27.2351 C   0  0  0  0  0  0  0  0  0  0  0  0
   11.0356   -2.8512   26.4225 C   0  0  0  0  0  0  0  0  0  0  0  0
   12.5275   -2.9992   26.4716 C   0  0  0  0  0  0  0  0  0  0  0  0
   13.3986   -2.0877   25.6589 C   0  0  0  0  0  0  0  0  0  0  0  0
   12.7780   -1.0283   24.7973 C   0  0  0  0  0  0  0  0  0  0  0  0
   11.2861   -0.8803   24.7482 C   0  0  0  0  0  0  0  0  0  0  0  0
   10.4149   -1.7918   25.5608 C   0  0  0  0  0  0  0  0  0  0  0  0
    5.5584    4.0218   21.3881 C   0  0  0  0  0  0  0  0  0  0  0  0
    1.7629    4.5390   20.3505 C   0  0  0  0  0  0  0  0  0  0  0  0
    3.0997    4.7626   20.9931 N   0  0  0  0  0  0  0  0  0  0  0  0
    4.2216    3.7982   20.7455 C   0  0  0  0  0  0  0  0  0  0  0  0
    4.0067    2.6102   19.8552 O   0  0  0  0  0  0  0  0  0  0  0  0
    3.2407    5.5423   21.5774 H   0  0  0  0  0  0  0  0  0  0  0  0
    7.4507    1.1763   21.2976 C   0  0  0  0  0  0  0  0  0  0  0  0
    6.6781    0.3377   20.3230 N   0  0  0  0  0  0  0  0  0  0  0  0
    5.7845   -0.8167   20.6679 C   0  0  0  0  0  0  0  0  0  0  0  0
    5.2176   -1.3617   19.3906 C   0  0  0  0  0  0  0  0  0  0  0  0
    5.7608   -0.5442   18.2563 C   0  0  0  0  0  0  0  0  0  0  0  0
    6.6635    0.5060   18.8326 N   0  0  0  0  0  0  0  0  0  0  0  0
 29 30  1  0  0  0
 30 31  1  0  0  0
 31 32  2  0  0  0
 31 28  1  0  0  0
 28  1  1  0  0  0
  1  2  1  0  0  0
  3  2  1  0  0  0
  3  4  1  0  0  0
  4  5  2  0  0  0
  4  6  1  0  0  0
  6 18  1  0  0  0
 18 19  2  0  0  0
 19 20  1  0  0  0
 20 21  2  0  0  0
 21 22  1  0  0  0
 22 23  2  0  0  0
 23 24  1  0  0  0
 24 25  2  0  0  0
 25 26  1  0  0  0
 26 27  2  0  0  0
  6  7  1  0  0  0
  7  8  1  0  0  0
  8 34  1  0  0  0
 34 35  1  0  0  0
 35 36  1  0  0  0
 36 37  2  0  0  0
 37 38  1  0  0  0
 38 39  2  0  0  0
  3  9  1  0  0  0
  9 10  2  0  0  0
 10 11  1  0  0  0
 11 12  1  0  0  0
 11 13  2  0  0  0
 13 14  1  0  0  0
 14 15  2  0  0  0
 15 16  1  0  0  0
 16 17  2  0  0  0
 16  1  1  0  0  0
  8  3  1  0  0  0
 39 35  1  0  0  0
 15  9  1  0  0  0
 27 18  1  0  0  0
 27 22  1  0  0  0
 30 33  1  0  0  0
M  END
> <minimizedAffinity>
-7.81664

> <CNNscore>
0.2028103024

> <CNNaffinity>
6.3601484299

> <CNN_VS>
1.2899036407

> <CNNaffinity_variance>
0.0450376458

$$$$



 39 44  0  0  0  0  0  0  0  0999 V2000
    6.4700    1.3527   21.2958 N   0  0  0  0  0  0  0  0  0  0  0  0
    7.7769    1.3215   22.0315 C   0  0  0  0  0  0  0  0  0  0  0  0
    8.2771    0.0345   22.6174 C   0  0  0  0  0  0  0  0  0  0  0  0
    8.9022   -1.1715   23.2536 C   0  0  0  0  0  0  0  0  0  0  0  0
    8.6855   -2.3561   23.4155 O   0  0  0  0  0  0  0  0  0  0  0  0
   10.1998   -0.7476   23.8754 N   0  0  0  0  0  0  0  0  0  0  0  0
   10.3766    0.7205   23.6235 C   0  0  0  0  0  0  0  0  0  0  0  0
    9.1884    1.2039   22.8461 C   0  0  0  0  0  0  0  0  0  0  0  0
    7.4705   -1.2213   22.4677 C   0  0  0  0  0  0  0  0  0  0  0  0
    7.9708   -2.5083   23.0536 C   0  0  0  0  0  0  0  0  0  0  0  0
    7.1642   -3.7641   22.9039 C   0  0  0  0  0  0  0  0  0  0  0  0
    7.6645   -5.0511   23.4899 Cl  0  0  0  0  0  0  0  0  0  0  0  0
    5.8574   -3.7328   22.1683 C   0  0  0  0  0  0  0  0  0  0  0  0
    5.3571   -2.4458   21.5823 C   0  0  0  0  0  0  0  0  0  0  0  0
    6.1637   -1.1901   21.7321 C   0  0  0  0  0  0  0  0  0  0  0  0
    5.6634    0.0970   21.1461 C   0  0  0  0  0  0  0  0  0  0  0  0
    4.3566    0.1282   20.4105 O   0  0  0  0  0  0  0  0  0  0  0  0
   11.1530   -1.6358   24.6186 C   0  0  0  0  0  0  0  0  0  0  0  0
   12.6007   -1.6758   24.2277 C   0  0  0  0  0  0  0  0  0  0  0  0
   13.5540   -2.5640   24.9709 N   0  0  0  0  0  0  0  0  0  0  0  0
   13.0596   -3.4122   26.1049 C   0  0  0  0  0  0  0  0  0  0  0  0
   11.6120   -3.3722   26.4958 C   0  0  0  0  0  0  0  0  0  0  0  0
   11.1176   -4.2206   27.6299 C   0  0  0  0  0  0  0  0  0  0  0  0
    9.6699   -4.1805   28.0207 C   0  0  0  0  0  0  0  0  0  0  0  0
    8.7167   -3.2923   27.2775 C   0  0  0  0  0  0  0  0  0  0  0  0
    9.2110   -2.4441   26.1435 C   0  0  0  0  0  0  0  0  0  0  0  0
   10.6587   -2.4840   25.7526 C   0  0  0  0  0  0  0  0  0  0  0  0
    5.9698    2.6398   20.7099 C   0  0  0  0  0  0  0  0  0  0  0  0
    2.9793    5.1028   21.5707 C   0  0  0  0  0  0  0  0  0  0  0  0
    3.9243    4.2398   20.7882 N   0  0  0  0  0  0  0  0  0  0  0  0
    5.0248    3.5028   21.4923 C   0  0  0  0  0  0  0  0  0  0  0  0
    5.1804    3.6289   22.9790 O   0  0  0  0  0  0  0  0  0  0  0  0
    3.8222    4.1570   19.8125 H   0  0  0  0  0  0  0  0  0  0  0  0
    8.9528    2.6098   22.3792 C   0  0  0  0  0  0  0  0  0  0  0  0
   10.0535    3.6246   22.4699 N   0  0  0  0  0  0  0  0  0  0  0  0
   11.4560    3.4514   21.9669 C   0  0  0  0  0  0  0  0  0  0  0  0
   12.2144    4.7105   22.2657 C   0  0  0  0  0  0  0  0  0  0  0  0
   11.2807    5.6620   22.9533 C   0  0  0  0  0  0  0  0  0  0  0  0
    9.9452    4.9908   23.0795 N   0  0  0  0  0  0  0  0  0  0  0  0
 29 30  1  0  0  0
 30 31  1  0  0  0
 31 32  2  0  0  0
 31 28  1  0  0  0
 28  1  1  0  0  0
  1  2  1  0  0  0
  3  2  1  0  0  0
  3  4  1  0  0  0
  4  5  2  0  0  0
  4  6  1  0  0  0
  6 18  1  0  0  0
 18 19  2  0  0  0
 19 20  1  0  0  0
 20 21  2  0  0  0
 21 22  1  0  0  0
 22 23  2  0  0  0
 23 24  1  0  0  0
 24 25  2  0  0  0
 25 26  1  0  0  0
 26 27  2  0  0  0
  6  7  1  0  0  0
  7  8  1  0  0  0
  8 34  1  0  0  0
 34 35  1  0  0  0
 35 36  1  0  0  0
 36 37  2  0  0  0
 37 38  1  0  0  0
 38 39  2  0  0  0
  3  9  1  0  0  0
  9 10  2  0  0  0
 10 11  1  0  0  0
 11 12  1  0  0  0
 11 13  2  0  0  0
 13 14  1  0  0  0
 14 15  2  0  0  0
 15 16  1  0  0  0
 16 17  2  0  0  0
 16  1  1  0  0  0
  8  3  1  0  0  0
 39 35  1  0  0  0
 15  9  1  0  0  0
 27 18  1  0  0  0
 27 22  1  0  0  0
 30 33  1  0  0  0
M  END
> <minimizedAffinity>
-7.77652

> <CNNscore>
0.1985274851

> <CNNaffinity>
6.7680716515

> <CNN_VS>
1.3436481953

> <CNNaffinity_variance>
0.1802707016

$$$$



 39 44  0  0  0  0  0  0  0  0999 V2000
   10.0085    1.3673   23.2845 N   0  0  0  0  0  0  0  0  0  0  0  0
    9.7567   -0.0859   23.5576 C   0  0  0  0  0  0  0  0  0  0  0  0
    8.3683   -0.5612   23.8678 C   0  0  0  0  0  0  0  0  0  0  0  0
    7.0408   -1.1806   24.1906 C   0  0  0  0  0  0  0  0  0  0  0  0
    5.8769   -0.8640   24.3371 O   0  0  0  0  0  0  0  0  0  0  0  0
    7.2519   -2.6524   24.3884 N   0  0  0  0  0  0  0  0  0  0  0  0
    8.7098   -2.9427   24.1880 C   0  0  0  0  0  0  0  0  0  0  0  0
    9.3997   -1.6502   23.8662 C   0  0  0  0  0  0  0  0  0  0  0  0
    7.2315    0.4168   23.9049 C   0  0  0  0  0  0  0  0  0  0  0  0
    5.8431   -0.0584   24.2151 C   0  0  0  0  0  0  0  0  0  0  0  0
    4.7064    0.9196   24.2521 C   0  0  0  0  0  0  0  0  0  0  0  0
    3.3178    0.4444   24.5623 Cl  0  0  0  0  0  0  0  0  0  0  0  0
    4.9582    2.3729   23.9789 C   0  0  0  0  0  0  0  0  0  0  0  0
    6.3466    2.8481   23.6687 C   0  0  0  0  0  0  0  0  0  0  0  0
    7.4833    1.8701   23.6317 C   0  0  0  0  0  0  0  0  0  0  0  0
    8.8718    2.3453   23.3215 C   0  0  0  0  0  0  0  0  0  0  0  0
    9.1236    3.7986   23.0483 O   0  0  0  0  0  0  0  0  0  0  0  0
    6.1912   -3.6575   24.7273 C   0  0  0  0  0  0  0  0  0  0  0  0
    5.5300   -4.4469   23.6365 C   0  0  0  0  0  0  0  0  0  0  0  0
    4.4694   -5.4519   23.9753 N   0  0  0  0  0  0  0  0  0  0  0  0
    4.0699   -5.6676   25.4049 C   0  0  0  0  0  0  0  0  0  0  0  0
    4.7310   -4.8783   26.4957 C   0  0  0  0  0  0  0  0  0  0  0  0
    4.3315   -5.0940   27.9254 C   0  0  0  0  0  0  0  0  0  0  0  0
    4.9927   -4.3046   29.0161 C   0  0  0  0  0  0  0  0  0  0  0  0
    6.0533   -3.2995   28.6773 C   0  0  0  0  0  0  0  0  0  0  0  0
    6.4528   -3.0838   27.2477 C   0  0  0  0  0  0  0  0  0  0  0  0
    5.7917   -3.8732   26.1569 C   0  0  0  0  0  0  0  0  0  0  0  0
   11.3971    1.8426   22.9743 C   0  0  0  0  0  0  0  0  0  0  0  0
   11.8507    5.5465   21.6234 C   0  0  0  0  0  0  0  0  0  0  0  0
   11.5511    4.0772   21.6579 N   0  0  0  0  0  0  0  0  0  0  0  0
   11.6967    3.3119   22.9398 C   0  0  0  0  0  0  0  0  0  0  0  0
   12.1418    4.0161   24.1872 O   0  0  0  0  0  0  0  0  0  0  0  0
   11.2589    3.6150   20.8392 H   0  0  0  0  0  0  0  0  0  0  0  0
   10.8641   -1.4773   23.5911 C   0  0  0  0  0  0  0  0  0  0  0  0
   11.8741   -1.8816   24.6237 N   0  0  0  0  0  0  0  0  0  0  0  0
   11.7352   -3.0150   25.5964 C   0  0  0  0  0  0  0  0  0  0  0  0
   12.9756   -3.0575   26.4388 C   0  0  0  0  0  0  0  0  0  0  0  0
   13.8811   -1.9504   25.9867 C   0  0  0  0  0  0  0  0  0  0  0  0
   13.2004   -1.2237   24.8649 N   0  0  0  0  0  0  0  0  0  0  0  0
 29 30  1  0  0  0
 30 31  1  0  0  0
 31 32  2  0  0  0
 31 28  1  0  0  0
 28  1  1  0  0  0
  1  2  1  0  0  0
  3  2  1  0  0  0
  3  4  1  0  0  0
  4  5  2  0  0  0
  4  6  1  0  0  0
  6 18  1  0  0  0
 18 19  2  0  0  0
 19 20  1  0  0  0
 20 21  2  0  0  0
 21 22  1  0  0  0
 22 23  2  0  0  0
 23 24  1  0  0  0
 24 25  2  0  0  0
 25 26  1  0  0  0
 26 27  2  0  0  0
  6  7  1  0  0  0
  7  8  1  0  0  0
  8 34  1  0  0  0
 34 35  1  0  0  0
 35 36  1  0  0  0
 36 37  2  0  0  0
 37 38  1  0  0  0
 38 39  2  0  0  0
  3  9  1  0  0  0
  9 10  2  0  0  0
 10 11  1  0  0  0
 11 12  1  0  0  0
 11 13  2  0  0  0
 13 14  1  0  0  0
 14 15  2  0  0  0
 15 16  1  0  0  0
 16 17  2  0  0  0
 16  1  1  0  0  0
  8  3  1  0  0  0
 39 35  1  0  0  0
 15  9  1  0  0  0
 27 18  1  0  0  0
 27 22  1  0  0  0
 30 33  1  0  0  0
M  END
> <minimizedAffinity>
-7.63682

> <CNNscore>
0.1807112098

> <CNNaffinity>
6.6625318527

> <CNN_VS>
1.2039941549

> <CNNaffinity_variance>
0.1501042396

$$$$



 39 44  0  0  0  0  0  0  0  0999 V2000
    6.7212   -3.4738   22.7935 N   0  0  0  0  0  0  0  0  0  0  0  0
    7.0312   -2.0966   22.2863 C   0  0  0  0  0  0  0  0  0  0  0  0
    8.2186   -1.3508   22.8189 C   0  0  0  0  0  0  0  0  0  0  0  0
    9.3653   -0.4879   23.2553 C   0  0  0  0  0  0  0  0  0  0  0  0
   10.3111   -0.5123   24.0176 O   0  0  0  0  0  0  0  0  0  0  0  0
    9.2917    0.8015   22.4924 N   0  0  0  0  0  0  0  0  0  0  0  0
    8.0995    0.7355   21.5844 C   0  0  0  0  0  0  0  0  0  0  0  0
    7.4363   -0.5947   21.7863 C   0  0  0  0  0  0  0  0  0  0  0  0
    9.0961   -1.9822   23.8588 C   0  0  0  0  0  0  0  0  0  0  0  0
   10.2836   -1.2364   24.3915 C   0  0  0  0  0  0  0  0  0  0  0  0
   11.1610   -1.8678   25.4314 C   0  0  0  0  0  0  0  0  0  0  0  0
   12.3485   -1.1220   25.9641 Cl  0  0  0  0  0  0  0  0  0  0  0  0
   10.8510   -3.2450   25.9386 C   0  0  0  0  0  0  0  0  0  0  0  0
    9.6636   -3.9908   25.4059 C   0  0  0  0  0  0  0  0  0  0  0  0
    8.7862   -3.3594   24.3661 C   0  0  0  0  0  0  0  0  0  0  0  0
    7.5987   -4.1052   23.8333 C   0  0  0  0  0  0  0  0  0  0  0  0
    7.2887   -5.4824   24.3406 O   0  0  0  0  0  0  0  0  0  0  0  0
   10.2432    1.9545   22.6157 C   0  0  0  0  0  0  0  0  0  0  0  0
   11.7205    1.7239   22.4957 C   0  0  0  0  0  0  0  0  0  0  0  0
   12.6721    2.8769   22.6190 N   0  0  0  0  0  0  0  0  0  0  0  0
   12.1463    4.2605   22.8624 C   0  0  0  0  0  0  0  0  0  0  0  0
   10.6690    4.4910   22.9824 C   0  0  0  0  0  0  0  0  0  0  0  0
   10.1432    5.8747   23.2258 C   0  0  0  0  0  0  0  0  0  0  0  0
    8.6659    6.1052   23.3458 C   0  0  0  0  0  0  0  0  0  0  0  0
    7.7143    4.9522   23.2224 C   0  0  0  0  0  0  0  0  0  0  0  0
    8.2401    3.5687   22.9791 C   0  0  0  0  0  0  0  0  0  0  0  0
    9.7174    3.3381   22.8591 C   0  0  0  0  0  0  0  0  0  0  0  0
    5.5337   -4.2196   22.2608 C   0  0  0  0  0  0  0  0  0  0  0  0
    4.1598   -7.1793   24.5196 C   0  0  0  0  0  0  0  0  0  0  0  0
    4.4596   -5.7952   24.0253 N   0  0  0  0  0  0  0  0  0  0  0  0
    5.2339   -5.6037   22.7550 C   0  0  0  0  0  0  0  0  0  0  0  0
    5.7085   -6.7965   21.9789 O   0  0  0  0  0  0  0  0  0  0  0  0
    4.1481   -5.0124   24.5347 H   0  0  0  0  0  0  0  0  0  0  0  0
    6.2067   -1.0831   21.0795 C   0  0  0  0  0  0  0  0  0  0  0  0
    5.6147   -0.2778   19.9611 N   0  0  0  0  0  0  0  0  0  0  0  0
    4.4992    0.7172   20.0856 C   0  0  0  0  0  0  0  0  0  0  0  0
    4.2293    1.2839   18.7232 C   0  0  0  0  0  0  0  0  0  0  0  0
    5.1781    0.6391   17.7567 C   0  0  0  0  0  0  0  0  0  0  0  0
    6.0343   -0.3261   18.5218 N   0  0  0  0  0  0  0  0  0  0  0  0
 29 30  1  0  0  0
 30 31  1  0  0  0
 31 32  2  0  0  0
 31 28  1  0  0  0
 28  1  1  0  0  0
  1  2  1  0  0  0
  3  2  1  0  0  0
  3  4  1  0  0  0
  4  5  2  0  0  0
  4  6  1  0  0  0
  6 18  1  0  0  0
 18 19  2  0  0  0
 19 20  1  0  0  0
 20 21  2  0  0  0
 21 22  1  0  0  0
 22 23  2  0  0  0
 23 24  1  0  0  0
 24 25  2  0  0  0
 25 26  1  0  0  0
 26 27  2  0  0  0
  6  7  1  0  0  0
  7  8  1  0  0  0
  8 34  1  0  0  0
 34 35  1  0  0  0
 35 36  1  0  0  0
 36 37  2  0  0  0
 37 38  1  0  0  0
 38 39  2  0  0  0
  3  9  1  0  0  0
  9 10  2  0  0  0
 10 11  1  0  0  0
 11 12  1  0  0  0
 11 13  2  0  0  0
 13 14  1  0  0  0
 14 15  2  0  0  0
 15 16  1  0  0  0
 16 17  2  0  0  0
 16  1  1  0  0  0
  8  3  1  0  0  0
 39 35  1  0  0  0
 15  9  1  0  0  0
 27 18  1  0  0  0
 27 22  1  0  0  0
 30 33  1  0  0  0
M  END
> <minimizedAffinity>
-9.01831

> <CNNscore>
0.1781446040

> <CNNaffinity>
6.7030425072

> <CNN_VS>
1.1941108704

> <CNNaffinity_variance>
0.1884161532

$$$$



 39 44  0  0  0  0  0  0  0  0999 V2000
    5.2938    2.9757   22.7903 N   0  0  0  0  0  0  0  0  0  0  0  0
    6.2937    1.8592   22.7310 C   0  0  0  0  0  0  0  0  0  0  0  0
    6.6847    1.1351   23.9851 C   0  0  0  0  0  0  0  0  0  0  0  0
    7.1707    0.3240   25.1495 C   0  0  0  0  0  0  0  0  0  0  0  0
    7.0127    0.2324   26.3507 O   0  0  0  0  0  0  0  0  0  0  0  0
    8.1606   -0.6788   24.6350 N   0  0  0  0  0  0  0  0  0  0  0  0
    8.2863   -0.4874   23.1525 C   0  0  0  0  0  0  0  0  0  0  0  0
    7.3742    0.6337   22.7509 C   0  0  0  0  0  0  0  0  0  0  0  0
    6.0759    1.5277   25.2986 C   0  0  0  0  0  0  0  0  0  0  0  0
    6.4670    0.8036   26.5527 C   0  0  0  0  0  0  0  0  0  0  0  0
    5.8581    1.1962   27.8662 C   0  0  0  0  0  0  0  0  0  0  0  0
    6.2492    0.4721   29.1204 Cl  0  0  0  0  0  0  0  0  0  0  0  0
    4.8582    2.3127   27.9255 C   0  0  0  0  0  0  0  0  0  0  0  0
    4.4672    3.0367   26.6714 C   0  0  0  0  0  0  0  0  0  0  0  0
    5.0760    2.6442   25.3580 C   0  0  0  0  0  0  0  0  0  0  0  0
    4.6849    3.3682   24.1038 C   0  0  0  0  0  0  0  0  0  0  0  0
    3.6850    4.4848   24.1631 O   0  0  0  0  0  0  0  0  0  0  0  0
    8.8956   -1.6946   25.4583 C   0  0  0  0  0  0  0  0  0  0  0  0
    8.1310   -2.6792   26.2925 C   0  0  0  0  0  0  0  0  0  0  0  0
    8.8660   -3.6950   27.1158 N   0  0  0  0  0  0  0  0  0  0  0  0
   10.3656   -3.7261   27.1050 C   0  0  0  0  0  0  0  0  0  0  0  0
   11.1302   -2.7415   26.2708 C   0  0  0  0  0  0  0  0  0  0  0  0
   12.6299   -2.7726   26.2600 C   0  0  0  0  0  0  0  0  0  0  0  0
   13.3944   -1.7879   25.4258 C   0  0  0  0  0  0  0  0  0  0  0  0
   12.6594   -0.7721   24.6025 C   0  0  0  0  0  0  0  0  0  0  0  0
   11.1598   -0.7410   24.6133 C   0  0  0  0  0  0  0  0  0  0  0  0
   10.3952   -1.7257   25.4475 C   0  0  0  0  0  0  0  0  0  0  0  0
    4.9027    3.6997   21.5361 C   0  0  0  0  0  0  0  0  0  0  0  0
    6.5569    7.2941   21.2291 C   0  0  0  0  0  0  0  0  0  0  0  0
    6.4105    5.8035   21.3112 N   0  0  0  0  0  0  0  0  0  0  0  0
    5.0491    5.1903   21.4540 C   0  0  0  0  0  0  0  0  0  0  0  0
    3.8339    6.0677   21.5147 O   0  0  0  0  0  0  0  0  0  0  0  0
    7.2080    5.2276   21.2714 H   0  0  0  0  0  0  0  0  0  0  0  0
    7.1848    1.1607   21.3594 C   0  0  0  0  0  0  0  0  0  0  0  0
    6.5397    0.3011   20.3131 N   0  0  0  0  0  0  0  0  0  0  0  0
    5.7715   -0.9631   20.5615 C   0  0  0  0  0  0  0  0  0  0  0  0
    5.3065   -1.4908   19.2367 C   0  0  0  0  0  0  0  0  0  0  0  0
    5.7872   -0.5528   18.1695 C   0  0  0  0  0  0  0  0  0  0  0  0
    6.5493    0.5547   18.8348 N   0  0  0  0  0  0  0  0  0  0  0  0
 29 30  1  0  0  0
 30 31  1  0  0  0
 31 32  2  0  0  0
 31 28  1  0  0  0
 28  1  1  0  0  0
  1  2  1  0  0  0
  3  2  1  0  0  0
  3  4  1  0  0  0
  4  5  2  0  0  0
  4  6  1  0  0  0
  6 18  1  0  0  0
 18 19  2  0  0  0
 19 20  1  0  0  0
 20 21  2  0  0  0
 21 22  1  0  0  0
 22 23  2  0  0  0
 23 24  1  0  0  0
 24 25  2  0  0  0
 25 26  1  0  0  0
 26 27  2  0  0  0
  6  7  1  0  0  0
  7  8  1  0  0  0
  8 34  1  0  0  0
 34 35  1  0  0  0
 35 36  1  0  0  0
 36 37  2  0  0  0
 37 38  1  0  0  0
 38 39  2  0  0  0
  3  9  1  0  0  0
  9 10  2  0  0  0
 10 11  1  0  0  0
 11 12  1  0  0  0
 11 13  2  0  0  0
 13 14  1  0  0  0
 14 15  2  0  0  0
 15 16  1  0  0  0
 16 17  2  0  0  0
 16  1  1  0  0  0
  8  3  1  0  0  0
 39 35  1  0  0  0
 15  9  1  0  0  0
 27 18  1  0  0  0
 27 22  1  0  0  0
 30 33  1  0  0  0
M  END
> <minimizedAffinity>
-7.27639

> <CNNscore>
0.1737269014

> <CNNaffinity>
6.3191423416

> <CNN_VS>
1.0978050232

> <CNNaffinity_variance>
0.0502174273

$$$$



 39 44  0  0  0  0  0  0  0  0999 V2000
    8.5503    4.7912   23.2146 N   0  0  0  0  0  0  0  0  0  0  0  0
    7.6212    3.6200   23.3365 C   0  0  0  0  0  0  0  0  0  0  0  0
    8.1597    2.2229   23.2463 C   0  0  0  0  0  0  0  0  0  0  0  0
    8.5505    0.7764   23.1769 C   0  0  0  0  0  0  0  0  0  0  0  0
    9.5390    0.0854   23.0290 O   0  0  0  0  0  0  0  0  0  0  0  0
    7.3089   -0.0480   23.3467 N   0  0  0  0  0  0  0  0  0  0  0  0
    6.1507    0.8890   23.5212 C   0  0  0  0  0  0  0  0  0  0  0  0
    6.6765    2.2925   23.4591 C   0  0  0  0  0  0  0  0  0  0  0  0
    9.6274    1.9970   23.0343 C   0  0  0  0  0  0  0  0  0  0  0  0
   10.1658    0.5999   22.9442 C   0  0  0  0  0  0  0  0  0  0  0  0
   11.6335    0.3741   22.7321 C   0  0  0  0  0  0  0  0  0  0  0  0
   12.1720   -1.0230   22.6420 Cl  0  0  0  0  0  0  0  0  0  0  0  0
   12.5626    1.5453   22.6102 C   0  0  0  0  0  0  0  0  0  0  0  0
   12.0242    2.9424   22.7004 C   0  0  0  0  0  0  0  0  0  0  0  0
   10.5565    3.1682   22.9124 C   0  0  0  0  0  0  0  0  0  0  0  0
   10.0180    4.5654   23.0025 C   0  0  0  0  0  0  0  0  0  0  0  0
   10.9471    5.7366   22.8806 O   0  0  0  0  0  0  0  0  0  0  0  0
    7.2381   -1.5463   23.3428 C   0  0  0  0  0  0  0  0  0  0  0  0
    6.3505   -2.2526   22.3612 C   0  0  0  0  0  0  0  0  0  0  0  0
    6.2796   -3.7509   22.3573 N   0  0  0  0  0  0  0  0  0  0  0  0
    7.0964   -4.5429   23.3349 C   0  0  0  0  0  0  0  0  0  0  0  0
    7.9839   -3.8366   24.3164 C   0  0  0  0  0  0  0  0  0  0  0  0
    8.8007   -4.6287   25.2940 C   0  0  0  0  0  0  0  0  0  0  0  0
    9.6882   -3.9223   26.2755 C   0  0  0  0  0  0  0  0  0  0  0  0
    9.7591   -2.4240   26.2794 C   0  0  0  0  0  0  0  0  0  0  0  0
    8.9424   -1.6320   25.3019 C   0  0  0  0  0  0  0  0  0  0  0  0
    8.0548   -2.3383   24.3203 C   0  0  0  0  0  0  0  0  0  0  0  0
    8.0118    6.1884   23.3047 C   0  0  0  0  0  0  0  0  0  0  0  0
    9.3980    7.8258   26.6434 C   0  0  0  0  0  0  0  0  0  0  0  0
    9.3557    7.0885   25.3378 N   0  0  0  0  0  0  0  0  0  0  0  0
    8.0541    6.9257   24.6103 C   0  0  0  0  0  0  0  0  0  0  0  0
    6.7948    7.5001   25.1884 O   0  0  0  0  0  0  0  0  0  0  0  0
   10.1822    6.7115   24.9584 H   0  0  0  0  0  0  0  0  0  0  0  0
    5.8620    3.5456   23.5874 C   0  0  0  0  0  0  0  0  0  0  0  0
    4.5822    3.6902   22.8187 N   0  0  0  0  0  0  0  0  0  0  0  0
    4.3805    4.5300   21.5922 C   0  0  0  0  0  0  0  0  0  0  0  0
    2.9530    4.3794   21.1569 C   0  0  0  0  0  0  0  0  0  0  0  0
    2.2724    3.4465   22.1143 C   0  0  0  0  0  0  0  0  0  0  0  0
    3.2793    3.0207   23.1413 N   0  0  0  0  0  0  0  0  0  0  0  0
 29 30  1  0  0  0
 30 31  1  0  0  0
 31 32  2  0  0  0
 31 28  1  0  0  0
 28  1  1  0  0  0
  1  2  1  0  0  0
  3  2  1  0  0  0
  3  4  1  0  0  0
  4  5  2  0  0  0
  4  6  1  0  0  0
  6 18  1  0  0  0
 18 19  2  0  0  0
 19 20  1  0  0  0
 20 21  2  0  0  0
 21 22  1  0  0  0
 22 23  2  0  0  0
 23 24  1  0  0  0
 24 25  2  0  0  0
 25 26  1  0  0  0
 26 27  2  0  0  0
  6  7  1  0  0  0
  7  8  1  0  0  0
  8 34  1  0  0  0
 34 35  1  0  0  0
 35 36  1  0  0  0
 36 37  2  0  0  0
 37 38  1  0  0  0
 38 39  2  0  0  0
  3  9  1  0  0  0
  9 10  2  0  0  0
 10 11  1  0  0  0
 11 12  1  0  0  0
 11 13  2  0  0  0
 13 14  1  0  0  0
 14 15  2  0  0  0
 15 16  1  0  0  0
 16 17  2  0  0  0
 16  1  1  0  0  0
  8  3  1  0  0  0
 39 35  1  0  0  0
 15  9  1  0  0  0
 27 18  1  0  0  0
 27 22  1  0  0  0
 30 33  1  0  0  0
M  END
> <minimizedAffinity>
-7.04448

> <CNNscore>
0.1609341651

> <CNNaffinity>
6.5657067299

> <CNN_VS>
1.0566465855

> <CNNaffinity_variance>
0.1972294450

$$$$
