


 39 44  0  0  0  0  0  0  0  0999 V2000
   -7.2124   -1.2704  -23.9132 N   0  0  0  0  0  0  0  0  0  0  0  0
   -7.6310    0.1654  -24.0280 C   0  0  0  0  0  0  0  0  0  0  0  0
   -9.0738    0.5415  -23.8643 C   0  0  0  0  0  0  0  0  0  0  0  0
  -10.4721    1.0661  -23.7253 C   0  0  0  0  0  0  0  0  0  0  0  0
  -11.5995    0.6661  -23.5125 O   0  0  0  0  0  0  0  0  0  0  0  0
  -10.4300    2.5537  -23.9134 N   0  0  0  0  0  0  0  0  0  0  0  0
   -9.0056    2.9485  -24.1688 C   0  0  0  0  0  0  0  0  0  0  0  0
   -8.1674    1.7048  -24.1384 C   0  0  0  0  0  0  0  0  0  0  0  0
  -10.0981   -0.5183  -23.5858 C   0  0  0  0  0  0  0  0  0  0  0  0
  -11.5410   -0.1422  -23.4221 C   0  0  0  0  0  0  0  0  0  0  0  0
  -12.5652   -1.2020  -23.1435 C   0  0  0  0  0  0  0  0  0  0  0  0
  -14.0081   -0.8260  -22.9798 Cl  0  0  0  0  0  0  0  0  0  0  0  0
  -12.1467   -2.6379  -23.0287 C   0  0  0  0  0  0  0  0  0  0  0  0
  -10.7039   -3.0139  -23.1923 C   0  0  0  0  0  0  0  0  0  0  0  0
   -9.6796   -1.9542  -23.4709 C   0  0  0  0  0  0  0  0  0  0  0  0
   -8.2367   -2.3302  -23.6346 C   0  0  0  0  0  0  0  0  0  0  0  0
   -7.8182   -3.7660  -23.5197 O   0  0  0  0  0  0  0  0  0  0  0  0
  -11.6059    3.4833  -23.8563 C   0  0  0  0  0  0  0  0  0  0  0  0
  -12.4089    3.6002  -22.5947 C   0  0  0  0  0  0  0  0  0  0  0  0
  -13.5847    4.5298  -22.5376 N   0  0  0  0  0  0  0  0  0  0  0  0
  -13.9576    5.3424  -23.7420 C   0  0  0  0  0  0  0  0  0  0  0  0
  -13.1545    5.2254  -25.0035 C   0  0  0  0  0  0  0  0  0  0  0  0
  -13.5274    6.0381  -26.2080 C   0  0  0  0  0  0  0  0  0  0  0  0
  -12.7243    5.9211  -27.4695 C   0  0  0  0  0  0  0  0  0  0  0  0
  -11.5485    4.9916  -27.5267 C   0  0  0  0  0  0  0  0  0  0  0  0
  -11.1757    4.1790  -26.3223 C   0  0  0  0  0  0  0  0  0  0  0  0
  -11.9787    4.2959  -25.0607 C   0  0  0  0  0  0  0  0  0  0  0  0
   -5.7695   -1.6465  -24.0769 C   0  0  0  0  0  0  0  0  0  0  0  0
   -4.3837   -4.0791  -26.8896 C   0  0  0  0  0  0  0  0  0  0  0  0
   -4.8838   -3.5829  -25.5653 N   0  0  0  0  0  0  0  0  0  0  0  0
   -5.2694   -2.1427  -25.4011 C   0  0  0  0  0  0  0  0  0  0  0  0
   -5.1549   -1.1986  -26.5612 O   0  0  0  0  0  0  0  0  0  0  0  0
   -4.9590   -4.2025  -24.8040 H   0  0  0  0  0  0  0  0  0  0  0  0
   -6.6834    1.6366  -24.3458 C   0  0  0  0  0  0  0  0  0  0  0  0
   -5.7534    2.1386  -23.2813 N   0  0  0  0  0  0  0  0  0  0  0  0
   -4.7804    3.2713  -23.4232 C   0  0  0  0  0  0  0  0  0  0  0  0
   -4.0588    3.4288  -22.1177 C   0  0  0  0  0  0  0  0  0  0  0  0
   -4.5859    2.3934  -21.1689 C   0  0  0  0  0  0  0  0  0  0  0  0
   -5.6332    1.5960  -21.8881 N   0  0  0  0  0  0  0  0  0  0  0  0
 29 30  1  0  0  0
 30 31  1  0  0  0
 31 32  2  0  0  0
 31 28  1  0  0  0
 28  1  1  0  0  0
  1  2  1  0  0  0
  3  2  1  0  0  0
  3  4  1  0  0  0
  4  5  2  0  0  0
  4  6  1  0  0  0
  6 18  1  0  0  0
 18 19  2  0  0  0
 19 20  1  0  0  0
 20 21  2  0  0  0
 21 22  1  0  0  0
 22 23  2  0  0  0
 23 24  1  0  0  0
 24 25  2  0  0  0
 25 26  1  0  0  0
 26 27  2  0  0  0
  6  7  1  0  0  0
  7  8  1  0  0  0
  8 34  1  0  0  0
 34 35  1  0  0  0
 35 36  1  0  0  0
 36 37  2  0  0  0
 37 38  1  0  0  0
 38 39  2  0  0  0
  3  9  1  0  0  0
  9 10  2  0  0  0
 10 11  1  0  0  0
 11 12  1  0  0  0
 11 13  2  0  0  0
 13 14  1  0  0  0
 14 15  2  0  0  0
 15 16  1  0  0  0
 16 17  2  0  0  0
 16  1  1  0  0  0
  8  3  1  0  0  0
 39 35  1  0  0  0
 15  9  1  0  0  0
 27 18  1  0  0  0
 27 22  1  0  0  0
 30 33  1  0  0  0
M  END
> <minimizedAffinity>
-7.25089

> <CNNscore>
0.7049239874

> <CNNaffinity>
6.9539871216

> <CNN_VS>
4.9020323753

> <CNNaffinity_variance>
0.0797433406

$$$$



 39 44  0  0  0  0  0  0  0  0999 V2000
  -11.5552    3.8656  -24.1280 N   0  0  0  0  0  0  0  0  0  0  0  0
  -10.1925    3.2408  -24.0761 C   0  0  0  0  0  0  0  0  0  0  0  0
  -10.0500    1.7744  -23.7946 C   0  0  0  0  0  0  0  0  0  0  0  0
   -9.7523    0.3291  -23.5254 C   0  0  0  0  0  0  0  0  0  0  0  0
  -10.3321   -0.7125  -23.2899 O   0  0  0  0  0  0  0  0  0  0  0  0
   -8.2640    0.1467  -23.5671 N   0  0  0  0  0  0  0  0  0  0  0  0
   -7.6418    1.4793  -23.8621 C   0  0  0  0  0  0  0  0  0  0  0  0
   -8.7456    2.4852  -24.0027 C   0  0  0  0  0  0  0  0  0  0  0  0
  -11.2702    0.9327  -23.5651 C   0  0  0  0  0  0  0  0  0  0  0  0
  -11.1277   -0.5338  -23.2836 C   0  0  0  0  0  0  0  0  0  0  0  0
  -12.3479   -1.3754  -23.0541 C   0  0  0  0  0  0  0  0  0  0  0  0
  -12.2054   -2.8419  -22.7726 Cl  0  0  0  0  0  0  0  0  0  0  0  0
  -13.7106   -0.7506  -23.1061 C   0  0  0  0  0  0  0  0  0  0  0  0
  -13.8531    0.7158  -23.3875 C   0  0  0  0  0  0  0  0  0  0  0  0
  -12.6329    1.5574  -23.6170 C   0  0  0  0  0  0  0  0  0  0  0  0
  -12.7754    3.0239  -23.8985 C   0  0  0  0  0  0  0  0  0  0  0  0
  -14.1381    3.6487  -23.9505 O   0  0  0  0  0  0  0  0  0  0  0  0
   -7.5273   -1.1421  -23.3517 C   0  0  0  0  0  0  0  0  0  0  0  0
   -6.9901   -1.4808  -21.9927 C   0  0  0  0  0  0  0  0  0  0  0  0
   -6.2534   -2.7695  -21.7773 N   0  0  0  0  0  0  0  0  0  0  0  0
   -6.0540   -3.7196  -22.9207 C   0  0  0  0  0  0  0  0  0  0  0  0
   -6.5912   -3.3809  -24.2797 C   0  0  0  0  0  0  0  0  0  0  0  0
   -6.3917   -4.3310  -25.4232 C   0  0  0  0  0  0  0  0  0  0  0  0
   -6.9289   -3.9922  -26.7821 C   0  0  0  0  0  0  0  0  0  0  0  0
   -7.6656   -2.7035  -26.9976 C   0  0  0  0  0  0  0  0  0  0  0  0
   -7.8651   -1.7534  -25.8541 C   0  0  0  0  0  0  0  0  0  0  0  0
   -7.3279   -2.0921  -24.4951 C   0  0  0  0  0  0  0  0  0  0  0  0
  -11.6976    5.3321  -24.4095 C   0  0  0  0  0  0  0  0  0  0  0  0
  -14.0130    6.4336  -27.4387 C   0  0  0  0  0  0  0  0  0  0  0  0
  -13.5842    5.9692  -26.0783 N   0  0  0  0  0  0  0  0  0  0  0  0
  -12.1265    5.7964  -25.7698 C   0  0  0  0  0  0  0  0  0  0  0  0
  -11.0975    6.0880  -26.8217 O   0  0  0  0  0  0  0  0  0  0  0  0
  -14.2595    5.7779  -25.3880 H   0  0  0  0  0  0  0  0  0  0  0  0
   -8.5749    3.9457  -24.2993 C   0  0  0  0  0  0  0  0  0  0  0  0
   -7.5679    4.7534  -23.5357 N   0  0  0  0  0  0  0  0  0  0  0  0
   -6.0772    4.6668  -23.6781 C   0  0  0  0  0  0  0  0  0  0  0  0
   -5.4626    5.6495  -22.7259 C   0  0  0  0  0  0  0  0  0  0  0  0
   -6.5735    6.3435  -21.9950 C   0  0  0  0  0  0  0  0  0  0  0  0
   -7.8746    5.7897  -22.4955 N   0  0  0  0  0  0  0  0  0  0  0  0
 29 30  1  0  0  0
 30 31  1  0  0  0
 31 32  2  0  0  0
 31 28  1  0  0  0
 28  1  1  0  0  0
  1  2  1  0  0  0
  3  2  1  0  0  0
  3  4  1  0  0  0
  4  5  2  0  0  0
  4  6  1  0  0  0
  6 18  1  0  0  0
 18 19  2  0  0  0
 19 20  1  0  0  0
 20 21  2  0  0  0
 21 22  1  0  0  0
 22 23  2  0  0  0
 23 24  1  0  0  0
 24 25  2  0  0  0
 25 26  1  0  0  0
 26 27  2  0  0  0
  6  7  1  0  0  0
  7  8  1  0  0  0
  8 34  1  0  0  0
 34 35  1  0  0  0
 35 36  1  0  0  0
 36 37  2  0  0  0
 37 38  1  0  0  0
 38 39  2  0  0  0
  3  9  1  0  0  0
  9 10  2  0  0  0
 10 11  1  0  0  0
 11 12  1  0  0  0
 11 13  2  0  0  0
 13 14  1  0  0  0
 14 15  2  0  0  0
 15 16  1  0  0  0
 16 17  2  0  0  0
 16  1  1  0  0  0
  8  3  1  0  0  0
 39 35  1  0  0  0
 15  9  1  0  0  0
 27 18  1  0  0  0
 27 22  1  0  0  0
 30 33  1  0  0  0
M  END
> <minimizedAffinity>
-7.40489

> <CNNscore>
0.4191769361

> <CNNaffinity>
6.7647347450

> <CNN_VS>
2.8356208801

> <CNNaffinity_variance>
0.2579866052

$$$$



 39 44  0  0  0  0  0  0  0  0999 V2000
   -7.5731   -1.3240  -23.0039 N   0  0  0  0  0  0  0  0  0  0  0  0
   -7.7954    0.1349  -23.2730 C   0  0  0  0  0  0  0  0  0  0  0  0
   -9.1912    0.6730  -23.3830 C   0  0  0  0  0  0  0  0  0  0  0  0
  -10.5219    1.3519  -23.5182 C   0  0  0  0  0  0  0  0  0  0  0  0
  -11.7080    1.0911  -23.4801 O   0  0  0  0  0  0  0  0  0  0  0  0
  -10.2750    2.8076  -23.7830 N   0  0  0  0  0  0  0  0  0  0  0  0
   -8.7916    3.0284  -23.8113 C   0  0  0  0  0  0  0  0  0  0  0  0
   -8.1218    1.7092  -23.5642 C   0  0  0  0  0  0  0  0  0  0  0  0
  -10.3647   -0.2476  -23.2239 C   0  0  0  0  0  0  0  0  0  0  0  0
  -11.7605    0.2906  -23.3339 C   0  0  0  0  0  0  0  0  0  0  0  0
  -12.9340   -0.6300  -23.1747 C   0  0  0  0  0  0  0  0  0  0  0  0
  -14.3298   -0.0918  -23.2847 Cl  0  0  0  0  0  0  0  0  0  0  0  0
  -12.7117   -2.0888  -22.9056 C   0  0  0  0  0  0  0  0  0  0  0  0
  -11.3159   -2.6270  -22.7956 C   0  0  0  0  0  0  0  0  0  0  0  0
  -10.1424   -1.7064  -22.9548 C   0  0  0  0  0  0  0  0  0  0  0  0
   -8.7466   -2.2446  -22.8448 C   0  0  0  0  0  0  0  0  0  0  0  0
   -8.5243   -3.7034  -22.5757 O   0  0  0  0  0  0  0  0  0  0  0  0
  -11.3267    3.8580  -23.9840 C   0  0  0  0  0  0  0  0  0  0  0  0
  -12.1772    4.2984  -22.8295 C   0  0  0  0  0  0  0  0  0  0  0  0
  -13.2290    5.3488  -23.0305 N   0  0  0  0  0  0  0  0  0  0  0  0
  -13.4303    5.9588  -24.3860 C   0  0  0  0  0  0  0  0  0  0  0  0
  -12.5798    5.5184  -25.5405 C   0  0  0  0  0  0  0  0  0  0  0  0
  -12.7811    6.1284  -26.8960 C   0  0  0  0  0  0  0  0  0  0  0  0
  -11.9306    5.6879  -28.0504 C   0  0  0  0  0  0  0  0  0  0  0  0
  -10.8788    4.6375  -27.8494 C   0  0  0  0  0  0  0  0  0  0  0  0
  -10.6775    4.0275  -26.4939 C   0  0  0  0  0  0  0  0  0  0  0  0
  -11.5280    4.4680  -25.3395 C   0  0  0  0  0  0  0  0  0  0  0  0
   -6.1773   -1.8622  -22.8940 C   0  0  0  0  0  0  0  0  0  0  0  0
   -5.5161   -5.5256  -21.5186 C   0  0  0  0  0  0  0  0  0  0  0  0
   -5.8129   -4.3980  -22.4622 N   0  0  0  0  0  0  0  0  0  0  0  0
   -5.8804   -2.9897  -21.9503 C   0  0  0  0  0  0  0  0  0  0  0  0
   -5.6510   -2.7089  -20.4948 O   0  0  0  0  0  0  0  0  0  0  0  0
   -5.9635   -4.5823  -23.4175 H   0  0  0  0  0  0  0  0  0  0  0  0
   -6.6423    1.4684  -23.5080 C   0  0  0  0  0  0  0  0  0  0  0  0
   -5.6933    2.6298  -23.4969 N   0  0  0  0  0  0  0  0  0  0  0  0
   -5.5787    3.6850  -24.5569 C   0  0  0  0  0  0  0  0  0  0  0  0
   -4.5068    4.6474  -24.1391 C   0  0  0  0  0  0  0  0  0  0  0  0
   -3.9588    4.1871  -22.8208 C   0  0  0  0  0  0  0  0  0  0  0  0
   -4.6921    2.9403  -22.4239 N   0  0  0  0  0  0  0  0  0  0  0  0
 29 30  1  0  0  0
 30 31  1  0  0  0
 31 32  2  0  0  0
 31 28  1  0  0  0
 28  1  1  0  0  0
  1  2  1  0  0  0
  3  2  1  0  0  0
  3  4  1  0  0  0
  4  5  2  0  0  0
  4  6  1  0  0  0
  6 18  1  0  0  0
 18 19  2  0  0  0
 19 20  1  0  0  0
 20 21  2  0  0  0
 21 22  1  0  0  0
 22 23  2  0  0  0
 23 24  1  0  0  0
 24 25  2  0  0  0
 25 26  1  0  0  0
 26 27  2  0  0  0
  6  7  1  0  0  0
  7  8  1  0  0  0
  8 34  1  0  0  0
 34 35  1  0  0  0
 35 36  1  0  0  0
 36 37  2  0  0  0
 37 38  1  0  0  0
 38 39  2  0  0  0
  3  9  1  0  0  0
  9 10  2  0  0  0
 10 11  1  0  0  0
 11 12  1  0  0  0
 11 13  2  0  0  0
 13 14  1  0  0  0
 14 15  2  0  0  0
 15 16  1  0  0  0
 16 17  2  0  0  0
 16  1  1  0  0  0
  8  3  1  0  0  0
 39 35  1  0  0  0
 15  9  1  0  0  0
 27 18  1  0  0  0
 27 22  1  0  0  0
 30 33  1  0  0  0
M  END
> <minimizedAffinity>
-6.94958

> <CNNscore>
0.4155409336

> <CNNaffinity>
6.7717642784

> <CNN_VS>
2.8139452934

> <CNNaffinity_variance>
0.0693934336

$$$$



 39 44  0  0  0  0  0  0  0  0999 V2000
   -5.9205   -4.2248  -21.6703 N   0  0  0  0  0  0  0  0  0  0  0  0
   -6.3868   -3.7164  -23.0023 C   0  0  0  0  0  0  0  0  0  0  0  0
   -6.3996   -2.2424  -23.2799 C   0  0  0  0  0  0  0  0  0  0  0  0
   -6.4680   -0.8041  -23.7000 C   0  0  0  0  0  0  0  0  0  0  0  0
   -6.2361    0.3055  -23.2623 O   0  0  0  0  0  0  0  0  0  0  0  0
   -6.9900   -0.7559  -25.1054 N   0  0  0  0  0  0  0  0  0  0  0  0
   -7.2443   -2.1645  -25.5539 C   0  0  0  0  0  0  0  0  0  0  0  0
   -6.8794   -3.0832  -24.4257 C   0  0  0  0  0  0  0  0  0  0  0  0
   -5.9463   -1.2767  -22.2254 C   0  0  0  0  0  0  0  0  0  0  0  0
   -5.9592    0.1974  -22.5030 C   0  0  0  0  0  0  0  0  0  0  0  0
   -5.5058    1.1630  -21.4485 C   0  0  0  0  0  0  0  0  0  0  0  0
   -5.5187    2.6371  -21.7261 Cl  0  0  0  0  0  0  0  0  0  0  0  0
   -5.0396    0.6547  -20.1165 C   0  0  0  0  0  0  0  0  0  0  0  0
   -5.0267   -0.8193  -19.8390 C   0  0  0  0  0  0  0  0  0  0  0  0
   -5.4801   -1.7850  -20.8934 C   0  0  0  0  0  0  0  0  0  0  0  0
   -5.4672   -3.2591  -20.6159 C   0  0  0  0  0  0  0  0  0  0  0  0
   -5.0010   -3.7674  -19.2839 O   0  0  0  0  0  0  0  0  0  0  0  0
   -7.2177    0.4833  -25.9193 C   0  0  0  0  0  0  0  0  0  0  0  0
   -8.5179    1.2234  -25.8110 C   0  0  0  0  0  0  0  0  0  0  0  0
   -8.7456    2.4626  -26.6250 N   0  0  0  0  0  0  0  0  0  0  0  0
   -7.6731    2.9617  -27.5472 C   0  0  0  0  0  0  0  0  0  0  0  0
   -6.3728    2.2216  -27.6556 C   0  0  0  0  0  0  0  0  0  0  0  0
   -5.3003    2.7207  -28.5779 C   0  0  0  0  0  0  0  0  0  0  0  0
   -4.0001    1.9806  -28.6862 C   0  0  0  0  0  0  0  0  0  0  0  0
   -3.7724    0.7414  -27.8722 C   0  0  0  0  0  0  0  0  0  0  0  0
   -4.8449    0.2423  -26.9499 C   0  0  0  0  0  0  0  0  0  0  0  0
   -6.1452    0.9824  -26.8416 C   0  0  0  0  0  0  0  0  0  0  0  0
   -5.9077   -5.6989  -21.3928 C   0  0  0  0  0  0  0  0  0  0  0  0
   -3.4652   -7.3574  -24.0448 C   0  0  0  0  0  0  0  0  0  0  0  0
   -4.0111   -6.4063  -23.0214 N   0  0  0  0  0  0  0  0  0  0  0  0
   -5.3618   -6.6500  -22.4162 C   0  0  0  0  0  0  0  0  0  0  0  0
   -6.1666   -7.8447  -22.8344 O   0  0  0  0  0  0  0  0  0  0  0  0
   -3.4829   -5.6222  -22.7469 H   0  0  0  0  0  0  0  0  0  0  0  0
   -6.9772   -4.5799  -24.4407 C   0  0  0  0  0  0  0  0  0  0  0  0
   -8.1298   -5.2494  -25.1286 N   0  0  0  0  0  0  0  0  0  0  0  0
   -8.1613   -6.6667  -25.6187 C   0  0  0  0  0  0  0  0  0  0  0  0
   -9.5043   -6.9125  -26.2402 C   0  0  0  0  0  0  0  0  0  0  0  0
  -10.3027   -5.6471  -26.1340 C   0  0  0  0  0  0  0  0  0  0  0  0
   -9.4532   -4.6193  -25.4470 N   0  0  0  0  0  0  0  0  0  0  0  0
 29 30  1  0  0  0
 30 31  1  0  0  0
 31 32  2  0  0  0
 31 28  1  0  0  0
 28  1  1  0  0  0
  1  2  1  0  0  0
  3  2  1  0  0  0
  3  4  1  0  0  0
  4  5  2  0  0  0
  4  6  1  0  0  0
  6 18  1  0  0  0
 18 19  2  0  0  0
 19 20  1  0  0  0
 20 21  2  0  0  0
 21 22  1  0  0  0
 22 23  2  0  0  0
 23 24  1  0  0  0
 24 25  2  0  0  0
 25 26  1  0  0  0
 26 27  2  0  0  0
  6  7  1  0  0  0
  7  8  1  0  0  0
  8 34  1  0  0  0
 34 35  1  0  0  0
 35 36  1  0  0  0
 36 37  2  0  0  0
 37 38  1  0  0  0
 38 39  2  0  0  0
  3  9  1  0  0  0
  9 10  2  0  0  0
 10 11  1  0  0  0
 11 12  1  0  0  0
 11 13  2  0  0  0
 13 14  1  0  0  0
 14 15  2  0  0  0
 15 16  1  0  0  0
 16 17  2  0  0  0
 16  1  1  0  0  0
  8  3  1  0  0  0
 39 35  1  0  0  0
 15  9  1  0  0  0
 27 18  1  0  0  0
 27 22  1  0  0  0
 30 33  1  0  0  0
M  END
> <minimizedAffinity>
-7.27320

> <CNNscore>
0.4121303558

> <CNNaffinity>
6.6641769409

> <CNN_VS>
2.7465095520

> <CNNaffinity_variance>
0.1161255985

$$$$



 39 44  0  0  0  0  0  0  0  0999 V2000
   -6.9508   -1.2193  -22.5538 N   0  0  0  0  0  0  0  0  0  0  0  0
   -7.0475    0.1042  -23.2531 C   0  0  0  0  0  0  0  0  0  0  0  0
   -8.3810    0.6133  -23.7140 C   0  0  0  0  0  0  0  0  0  0  0  0
   -9.6384    1.2486  -24.2290 C   0  0  0  0  0  0  0  0  0  0  0  0
  -10.8322    1.0313  -24.2935 O   0  0  0  0  0  0  0  0  0  0  0  0
   -9.2718    2.5618  -24.8544 N   0  0  0  0  0  0  0  0  0  0  0  0
   -7.7878    2.7382  -24.7258 C   0  0  0  0  0  0  0  0  0  0  0  0
   -7.2373    1.5339  -24.0210 C   0  0  0  0  0  0  0  0  0  0  0  0
   -9.6179   -0.2012  -23.4757 C   0  0  0  0  0  0  0  0  0  0  0  0
  -10.9515    0.3078  -23.9367 C   0  0  0  0  0  0  0  0  0  0  0  0
  -12.1883   -0.5066  -23.6984 C   0  0  0  0  0  0  0  0  0  0  0  0
  -13.5219    0.0024  -24.1594 Cl  0  0  0  0  0  0  0  0  0  0  0  0
  -12.0916   -1.8302  -22.9992 C   0  0  0  0  0  0  0  0  0  0  0  0
  -10.7581   -2.3392  -22.5382 C   0  0  0  0  0  0  0  0  0  0  0  0
   -9.5213   -1.5247  -22.7765 C   0  0  0  0  0  0  0  0  0  0  0  0
   -8.1876   -2.0338  -22.3155 C   0  0  0  0  0  0  0  0  0  0  0  0
   -8.0909   -3.3573  -21.6163 O   0  0  0  0  0  0  0  0  0  0  0  0
  -10.2224    3.5289  -25.4956 C   0  0  0  0  0  0  0  0  0  0  0  0
  -10.0840    3.8629  -26.9514 C   0  0  0  0  0  0  0  0  0  0  0  0
  -11.0345    4.8300  -27.5927 N   0  0  0  0  0  0  0  0  0  0  0  0
  -12.1235    5.4630  -26.7782 C   0  0  0  0  0  0  0  0  0  0  0  0
  -12.2618    5.1290  -25.3224 C   0  0  0  0  0  0  0  0  0  0  0  0
  -13.3509    5.7621  -24.5078 C   0  0  0  0  0  0  0  0  0  0  0  0
  -13.4892    5.4280  -23.0521 C   0  0  0  0  0  0  0  0  0  0  0  0
  -12.5386    4.4609  -22.4108 C   0  0  0  0  0  0  0  0  0  0  0  0
  -11.4497    3.8279  -23.2253 C   0  0  0  0  0  0  0  0  0  0  0  0
  -11.3113    4.1619  -24.6811 C   0  0  0  0  0  0  0  0  0  0  0  0
   -5.6172   -1.7283  -22.0928 C   0  0  0  0  0  0  0  0  0  0  0  0
   -5.5203   -5.6806  -21.7465 C   0  0  0  0  0  0  0  0  0  0  0  0
   -5.6323   -4.3133  -22.3530 N   0  0  0  0  0  0  0  0  0  0  0  0
   -5.5052   -3.0957  -21.4863 C   0  0  0  0  0  0  0  0  0  0  0  0
   -5.2660   -3.2453  -20.0130 O   0  0  0  0  0  0  0  0  0  0  0  0
   -5.7893   -4.2150  -23.3199 H   0  0  0  0  0  0  0  0  0  0  0  0
   -5.7960    1.2926  -23.6827 C   0  0  0  0  0  0  0  0  0  0  0  0
   -4.8770    2.4538  -23.4441 N   0  0  0  0  0  0  0  0  0  0  0  0
   -3.6083    2.7420  -24.1908 C   0  0  0  0  0  0  0  0  0  0  0  0
   -3.0125    3.9970  -23.6252 C   0  0  0  0  0  0  0  0  0  0  0  0
   -3.9129    4.4845  -22.5290 C   0  0  0  0  0  0  0  0  0  0  0  0
   -5.0652    3.5308  -22.4172 N   0  0  0  0  0  0  0  0  0  0  0  0
 29 30  1  0  0  0
 30 31  1  0  0  0
 31 32  2  0  0  0
 31 28  1  0  0  0
 28  1  1  0  0  0
  1  2  1  0  0  0
  3  2  1  0  0  0
  3  4  1  0  0  0
  4  5  2  0  0  0
  4  6  1  0  0  0
  6 18  1  0  0  0
 18 19  2  0  0  0
 19 20  1  0  0  0
 20 21  2  0  0  0
 21 22  1  0  0  0
 22 23  2  0  0  0
 23 24  1  0  0  0
 24 25  2  0  0  0
 25 26  1  0  0  0
 26 27  2  0  0  0
  6  7  1  0  0  0
  7  8  1  0  0  0
  8 34  1  0  0  0
 34 35  1  0  0  0
 35 36  1  0  0  0
 36 37  2  0  0  0
 37 38  1  0  0  0
 38 39  2  0  0  0
  3  9  1  0  0  0
  9 10  2  0  0  0
 10 11  1  0  0  0
 11 12  1  0  0  0
 11 13  2  0  0  0
 13 14  1  0  0  0
 14 15  2  0  0  0
 15 16  1  0  0  0
 16 17  2  0  0  0
 16  1  1  0  0  0
  8  3  1  0  0  0
 39 35  1  0  0  0
 15  9  1  0  0  0
 27 18  1  0  0  0
 27 22  1  0  0  0
 30 33  1  0  0  0
M  END
> <minimizedAffinity>
-7.04560

> <CNNscore>
0.3355021775

> <CNNaffinity>
6.5828733444

> <CNN_VS>
2.2085683346

> <CNNaffinity_variance>
0.1446953416

$$$$



 39 44  0  0  0  0  0  0  0  0999 V2000
  -11.3682    0.8322  -24.0846 N   0  0  0  0  0  0  0  0  0  0  0  0
  -10.8075    2.1081  -24.6394 C   0  0  0  0  0  0  0  0  0  0  0  0
   -9.3382    2.3905  -24.5325 C   0  0  0  0  0  0  0  0  0  0  0  0
   -7.8980    2.8084  -24.4996 C   0  0  0  0  0  0  0  0  0  0  0  0
   -6.8203    2.4047  -24.1097 O   0  0  0  0  0  0  0  0  0  0  0  0
   -7.7889    4.1487  -25.1643 N   0  0  0  0  0  0  0  0  0  0  0  0
   -9.1617    4.5591  -25.6080 C   0  0  0  0  0  0  0  0  0  0  0  0
  -10.1192    3.4725  -25.2175 C   0  0  0  0  0  0  0  0  0  0  0  0
   -8.4297    1.3971  -23.8708 C   0  0  0  0  0  0  0  0  0  0  0  0
   -6.9604    1.6796  -23.7639 C   0  0  0  0  0  0  0  0  0  0  0  0
   -6.0519    0.6862  -23.1022 C   0  0  0  0  0  0  0  0  0  0  0  0
   -4.5826    0.9687  -22.9953 Cl  0  0  0  0  0  0  0  0  0  0  0  0
   -6.6127   -0.5896  -22.5475 C   0  0  0  0  0  0  0  0  0  0  0  0
   -8.0819   -0.8721  -22.6544 C   0  0  0  0  0  0  0  0  0  0  0  0
   -8.9904    0.1213  -23.3160 C   0  0  0  0  0  0  0  0  0  0  0  0
  -10.4598   -0.1612  -23.4230 C   0  0  0  0  0  0  0  0  0  0  0  0
  -11.0205   -1.4370  -22.8682 O   0  0  0  0  0  0  0  0  0  0  0  0
   -6.5283    4.9396  -25.3523 C   0  0  0  0  0  0  0  0  0  0  0  0
   -6.1978    5.5157  -26.6972 C   0  0  0  0  0  0  0  0  0  0  0  0
   -4.9372    6.3066  -26.8852 N   0  0  0  0  0  0  0  0  0  0  0  0
   -4.0071    6.5214  -25.7282 C   0  0  0  0  0  0  0  0  0  0  0  0
   -4.3375    5.9453  -24.3832 C   0  0  0  0  0  0  0  0  0  0  0  0
   -3.4073    6.1601  -23.2262 C   0  0  0  0  0  0  0  0  0  0  0  0
   -3.7379    5.5840  -21.8812 C   0  0  0  0  0  0  0  0  0  0  0  0
   -4.9985    4.7931  -21.6933 C   0  0  0  0  0  0  0  0  0  0  0  0
   -5.9286    4.5783  -22.8503 C   0  0  0  0  0  0  0  0  0  0  0  0
   -5.5981    5.1544  -24.1953 C   0  0  0  0  0  0  0  0  0  0  0  0
  -12.8376    0.5498  -24.1916 C   0  0  0  0  0  0  0  0  0  0  0  0
  -14.8678   -1.2903  -21.3206 C   0  0  0  0  0  0  0  0  0  0  0  0
  -14.0551   -1.0656  -22.5612 N   0  0  0  0  0  0  0  0  0  0  0  0
  -13.6503    0.3251  -22.9510 C   0  0  0  0  0  0  0  0  0  0  0  0
  -14.0583    1.4912  -22.1002 O   0  0  0  0  0  0  0  0  0  0  0  0
  -13.7873   -1.8310  -23.1196 H   0  0  0  0  0  0  0  0  0  0  0  0
  -11.5981    3.4687  -25.4681 C   0  0  0  0  0  0  0  0  0  0  0  0
  -12.3018    4.7444  -25.8246 N   0  0  0  0  0  0  0  0  0  0  0  0
  -13.2262    5.5201  -24.9335 C   0  0  0  0  0  0  0  0  0  0  0  0
  -13.7004    6.7236  -25.6928 C   0  0  0  0  0  0  0  0  0  0  0  0
  -13.0691    6.6918  -27.0532 C   0  0  0  0  0  0  0  0  0  0  0  0
  -12.2048    5.4686  -27.1345 N   0  0  0  0  0  0  0  0  0  0  0  0
 29 30  1  0  0  0
 30 31  1  0  0  0
 31 32  2  0  0  0
 31 28  1  0  0  0
 28  1  1  0  0  0
  1  2  1  0  0  0
  3  2  1  0  0  0
  3  4  1  0  0  0
  4  5  2  0  0  0
  4  6  1  0  0  0
  6 18  1  0  0  0
 18 19  2  0  0  0
 19 20  1  0  0  0
 20 21  2  0  0  0
 21 22  1  0  0  0
 22 23  2  0  0  0
 23 24  1  0  0  0
 24 25  2  0  0  0
 25 26  1  0  0  0
 26 27  2  0  0  0
  6  7  1  0  0  0
  7  8  1  0  0  0
  8 34  1  0  0  0
 34 35  1  0  0  0
 35 36  1  0  0  0
 36 37  2  0  0  0
 37 38  1  0  0  0
 38 39  2  0  0  0
  3  9  1  0  0  0
  9 10  2  0  0  0
 10 11  1  0  0  0
 11 12  1  0  0  0
 11 13  2  0  0  0
 13 14  1  0  0  0
 14 15  2  0  0  0
 15 16  1  0  0  0
 16 17  2  0  0  0
 16  1  1  0  0  0
  8  3  1  0  0  0
 39 35  1  0  0  0
 15  9  1  0  0  0
 27 18  1  0  0  0
 27 22  1  0  0  0
 30 33  1  0  0  0
M  END
> <minimizedAffinity>
-0.23595

> <CNNscore>
0.3311222792

> <CNNaffinity>
6.2827787399

> <CNN_VS>
2.0803680420

> <CNNaffinity_variance>
0.9268013835

$$$$



 39 44  0  0  0  0  0  0  0  0999 V2000
   -7.4681   -3.9314  -22.6600 N   0  0  0  0  0  0  0  0  0  0  0  0
   -8.6242   -3.1415  -23.1981 C   0  0  0  0  0  0  0  0  0  0  0  0
   -8.6199   -1.6447  -23.1007 C   0  0  0  0  0  0  0  0  0  0  0  0
   -8.7555   -0.1511  -23.0747 C   0  0  0  0  0  0  0  0  0  0  0  0
   -8.1469    0.8324  -22.7024 O   0  0  0  0  0  0  0  0  0  0  0  0
  -10.0628    0.2070  -23.7172 N   0  0  0  0  0  0  0  0  0  0  0  0
  -10.7352   -1.0653  -24.1404 C   0  0  0  0  0  0  0  0  0  0  0  0
   -9.8434   -2.2097  -23.7594 C   0  0  0  0  0  0  0  0  0  0  0  0
   -7.4596   -0.9378  -22.4652 C   0  0  0  0  0  0  0  0  0  0  0  0
   -7.4553    0.5590  -22.3678 C   0  0  0  0  0  0  0  0  0  0  0  0
   -6.2950    1.2659  -21.7323 C   0  0  0  0  0  0  0  0  0  0  0  0
   -6.2906    2.7628  -21.6349 Cl  0  0  0  0  0  0  0  0  0  0  0  0
   -5.1389    0.4760  -21.1942 C   0  0  0  0  0  0  0  0  0  0  0  0
   -5.1432   -1.0208  -21.2916 C   0  0  0  0  0  0  0  0  0  0  0  0
   -6.3035   -1.7277  -21.9271 C   0  0  0  0  0  0  0  0  0  0  0  0
   -6.3078   -3.2245  -22.0246 C   0  0  0  0  0  0  0  0  0  0  0  0
   -5.1517   -4.0145  -21.4865 O   0  0  0  0  0  0  0  0  0  0  0  0
  -10.6028    1.5939  -23.9038 C   0  0  0  0  0  0  0  0  0  0  0  0
  -11.7061    2.0945  -23.0194 C   0  0  0  0  0  0  0  0  0  0  0  0
  -12.2461    3.4814  -23.2060 N   0  0  0  0  0  0  0  0  0  0  0  0
  -11.6828    4.3678  -24.2770 C   0  0  0  0  0  0  0  0  0  0  0  0
  -10.5795    3.8672  -25.1614 C   0  0  0  0  0  0  0  0  0  0  0  0
  -10.0162    4.7536  -26.2325 C   0  0  0  0  0  0  0  0  0  0  0  0
   -8.9129    4.2529  -27.1169 C   0  0  0  0  0  0  0  0  0  0  0  0
   -8.3729    2.8660  -26.9303 C   0  0  0  0  0  0  0  0  0  0  0  0
   -8.9362    1.9797  -25.8592 C   0  0  0  0  0  0  0  0  0  0  0  0
  -10.0395    2.4803  -24.9748 C   0  0  0  0  0  0  0  0  0  0  0  0
   -7.4724   -5.4283  -22.7575 C   0  0  0  0  0  0  0  0  0  0  0  0
   -3.8259   -6.9105  -23.2633 C   0  0  0  0  0  0  0  0  0  0  0  0
   -5.0890   -6.1394  -23.5082 N   0  0  0  0  0  0  0  0  0  0  0  0
   -6.2094   -6.1994  -22.5126 C   0  0  0  0  0  0  0  0  0  0  0  0
   -6.0666   -7.0307  -21.2721 O   0  0  0  0  0  0  0  0  0  0  0  0
   -5.1827   -5.5939  -24.3223 H   0  0  0  0  0  0  0  0  0  0  0  0
  -10.1257   -3.6639  -23.9955 C   0  0  0  0  0  0  0  0  0  0  0  0
   -9.9904   -4.2400  -25.3738 N   0  0  0  0  0  0  0  0  0  0  0  0
  -10.2831   -5.6569  -25.7697 C   0  0  0  0  0  0  0  0  0  0  0  0
  -10.0123   -5.7930  -27.2387 C   0  0  0  0  0  0  0  0  0  0  0  0
   -9.5523   -4.4603  -27.7508 C   0  0  0  0  0  0  0  0  0  0  0  0
   -9.5388   -3.5005  -26.5981 N   0  0  0  0  0  0  0  0  0  0  0  0
 29 30  1  0  0  0
 30 31  1  0  0  0
 31 32  2  0  0  0
 31 28  1  0  0  0
 28  1  1  0  0  0
  1  2  1  0  0  0
  3  2  1  0  0  0
  3  4  1  0  0  0
  4  5  2  0  0  0
  4  6  1  0  0  0
  6 18  1  0  0  0
 18 19  2  0  0  0
 19 20  1  0  0  0
 20 21  2  0  0  0
 21 22  1  0  0  0
 22 23  2  0  0  0
 23 24  1  0  0  0
 24 25  2  0  0  0
 25 26  1  0  0  0
 26 27  2  0  0  0
  6  7  1  0  0  0
  7  8  1  0  0  0
  8 34  1  0  0  0
 34 35  1  0  0  0
 35 36  1  0  0  0
 36 37  2  0  0  0
 37 38  1  0  0  0
 38 39  2  0  0  0
  3  9  1  0  0  0
  9 10  2  0  0  0
 10 11  1  0  0  0
 11 12  1  0  0  0
 11 13  2  0  0  0
 13 14  1  0  0  0
 14 15  2  0  0  0
 15 16  1  0  0  0
 16 17  2  0  0  0
 16  1  1  0  0  0
  8  3  1  0  0  0
 39 35  1  0  0  0
 15  9  1  0  0  0
 27 18  1  0  0  0
 27 22  1  0  0  0
 30 33  1  0  0  0
M  END
> <minimizedAffinity>
-7.53155

> <CNNscore>
0.3033536971

> <CNNaffinity>
6.5807318687

> <CNN_VS>
1.9962893724

> <CNNaffinity_variance>
0.0377703495

$$$$



 39 44  0  0  0  0  0  0  0  0999 V2000
   -5.9382   -4.2178  -21.6532 N   0  0  0  0  0  0  0  0  0  0  0  0
   -6.4487   -3.7089  -22.9687 C   0  0  0  0  0  0  0  0  0  0  0  0
   -6.4746   -2.2345  -23.2434 C   0  0  0  0  0  0  0  0  0  0  0  0
   -6.5605   -0.7958  -23.6589 C   0  0  0  0  0  0  0  0  0  0  0  0
   -6.3176    0.3138  -23.2273 O   0  0  0  0  0  0  0  0  0  0  0  0
   -7.1278   -0.7470  -25.0466 N   0  0  0  0  0  0  0  0  0  0  0  0
   -7.3927   -2.1557  -25.4888 C   0  0  0  0  0  0  0  0  0  0  0  0
   -6.9890   -3.0750  -24.3744 C   0  0  0  0  0  0  0  0  0  0  0  0
   -5.9900   -1.2690  -22.2027 C   0  0  0  0  0  0  0  0  0  0  0  0
   -6.0159    0.2053  -22.4775 C   0  0  0  0  0  0  0  0  0  0  0  0
   -5.5313    1.1708  -21.4368 C   0  0  0  0  0  0  0  0  0  0  0  0
   -5.5572    2.6452  -21.7115 Cl  0  0  0  0  0  0  0  0  0  0  0  0
   -5.0208    0.6618  -20.1214 C   0  0  0  0  0  0  0  0  0  0  0  0
   -4.9949   -0.8125  -19.8466 C   0  0  0  0  0  0  0  0  0  0  0  0
   -5.4795   -1.7780  -20.8873 C   0  0  0  0  0  0  0  0  0  0  0  0
   -5.4536   -3.2524  -20.6126 C   0  0  0  0  0  0  0  0  0  0  0  0
   -4.9431   -3.7614  -19.2971 O   0  0  0  0  0  0  0  0  0  0  0  0
   -7.3852    0.4927  -25.8508 C   0  0  0  0  0  0  0  0  0  0  0  0
   -6.5002    0.8291  -27.0143 C   0  0  0  0  0  0  0  0  0  0  0  0
   -6.7575    2.0689  -27.8185 N   0  0  0  0  0  0  0  0  0  0  0  0
   -7.8998    2.9722  -27.4593 C   0  0  0  0  0  0  0  0  0  0  0  0
   -8.7848    2.6358  -26.2958 C   0  0  0  0  0  0  0  0  0  0  0  0
   -9.9272    3.5392  -25.9366 C   0  0  0  0  0  0  0  0  0  0  0  0
  -10.8122    3.2027  -24.7731 C   0  0  0  0  0  0  0  0  0  0  0  0
  -10.5548    1.9629  -23.9689 C   0  0  0  0  0  0  0  0  0  0  0  0
   -9.4125    1.0596  -24.3281 C   0  0  0  0  0  0  0  0  0  0  0  0
   -8.5275    1.3960  -25.4916 C   0  0  0  0  0  0  0  0  0  0  0  0
   -5.9123   -5.6923  -21.3785 C   0  0  0  0  0  0  0  0  0  0  0  0
   -3.4406   -7.3212  -24.0218 C   0  0  0  0  0  0  0  0  0  0  0  0
   -4.0010   -6.3775  -22.9994 N   0  0  0  0  0  0  0  0  0  0  0  0
   -5.3519   -6.6360  -22.4010 C   0  0  0  0  0  0  0  0  0  0  0  0
   -6.1426   -7.8381  -22.8251 O   0  0  0  0  0  0  0  0  0  0  0  0
   -3.4821   -5.5885  -22.7210 H   0  0  0  0  0  0  0  0  0  0  0  0
   -7.0831   -4.5720  -24.3885 C   0  0  0  0  0  0  0  0  0  0  0  0
   -8.2042   -5.2461  -25.1223 N   0  0  0  0  0  0  0  0  0  0  0  0
   -8.2560   -6.6925  -25.5165 C   0  0  0  0  0  0  0  0  0  0  0  0
   -9.5541   -6.9326  -26.2286 C   0  0  0  0  0  0  0  0  0  0  0  0
  -10.3046   -5.6347  -26.2746 C   0  0  0  0  0  0  0  0  0  0  0  0
   -9.4703   -4.5924  -25.5908 N   0  0  0  0  0  0  0  0  0  0  0  0
 29 30  1  0  0  0
 30 31  1  0  0  0
 31 32  2  0  0  0
 31 28  1  0  0  0
 28  1  1  0  0  0
  1  2  1  0  0  0
  3  2  1  0  0  0
  3  4  1  0  0  0
  4  5  2  0  0  0
  4  6  1  0  0  0
  6 18  1  0  0  0
 18 19  2  0  0  0
 19 20  1  0  0  0
 20 21  2  0  0  0
 21 22  1  0  0  0
 22 23  2  0  0  0
 23 24  1  0  0  0
 24 25  2  0  0  0
 25 26  1  0  0  0
 26 27  2  0  0  0
  6  7  1  0  0  0
  7  8  1  0  0  0
  8 34  1  0  0  0
 34 35  1  0  0  0
 35 36  1  0  0  0
 36 37  2  0  0  0
 37 38  1  0  0  0
 38 39  2  0  0  0
  3  9  1  0  0  0
  9 10  2  0  0  0
 10 11  1  0  0  0
 11 12  1  0  0  0
 11 13  2  0  0  0
 13 14  1  0  0  0
 14 15  2  0  0  0
 15 16  1  0  0  0
 16 17  2  0  0  0
 16  1  1  0  0  0
  8  3  1  0  0  0
 39 35  1  0  0  0
 15  9  1  0  0  0
 27 18  1  0  0  0
 27 22  1  0  0  0
 30 33  1  0  0  0
M  END
> <minimizedAffinity>
-8.08649

> <CNNscore>
0.2650674582

> <CNNaffinity>
6.4397325516

> <CNN_VS>
1.7069635391

> <CNNaffinity_variance>
0.0113582006

$$$$



 39 44  0  0  0  0  0  0  0  0999 V2000
   -6.0088   -5.5647  -23.3184 N   0  0  0  0  0  0  0  0  0  0  0  0
   -6.5871   -4.4912  -24.1920 C   0  0  0  0  0  0  0  0  0  0  0  0
   -6.7942   -3.1099  -23.6453 C   0  0  0  0  0  0  0  0  0  0  0  0
   -7.0575   -1.6899  -23.2400 C   0  0  0  0  0  0  0  0  0  0  0  0
   -6.9484   -0.9625  -22.2729 O   0  0  0  0  0  0  0  0  0  0  0  0
   -7.6368   -0.9703  -24.4218 N   0  0  0  0  0  0  0  0  0  0  0  0
   -7.7314   -1.9456  -25.5575 C   0  0  0  0  0  0  0  0  0  0  0  0
   -7.2107   -3.2679  -25.0776 C   0  0  0  0  0  0  0  0  0  0  0  0
   -6.4231   -2.8020  -22.2249 C   0  0  0  0  0  0  0  0  0  0  0  0
   -6.6303   -1.4207  -21.6781 C   0  0  0  0  0  0  0  0  0  0  0  0
   -6.2592   -1.1129  -20.2578 C   0  0  0  0  0  0  0  0  0  0  0  0
   -6.4663    0.2685  -19.7109 Cl  0  0  0  0  0  0  0  0  0  0  0  0
   -5.6809   -2.1864  -19.3841 C   0  0  0  0  0  0  0  0  0  0  0  0
   -5.4737   -3.5677  -19.9309 C   0  0  0  0  0  0  0  0  0  0  0  0
   -5.8448   -3.8755  -21.3512 C   0  0  0  0  0  0  0  0  0  0  0  0
   -5.6377   -5.2569  -21.8981 C   0  0  0  0  0  0  0  0  0  0  0  0
   -5.0594   -6.3304  -21.0244 O   0  0  0  0  0  0  0  0  0  0  0  0
   -8.0489    0.4714  -24.4610 C   0  0  0  0  0  0  0  0  0  0  0  0
   -7.0487    1.5278  -24.8264 C   0  0  0  0  0  0  0  0  0  0  0  0
   -7.4608    2.9695  -24.8656 N   0  0  0  0  0  0  0  0  0  0  0  0
   -8.8733    3.3548  -24.5393 C   0  0  0  0  0  0  0  0  0  0  0  0
   -9.8735    2.2985  -24.1739 C   0  0  0  0  0  0  0  0  0  0  0  0
  -11.2861    2.6839  -23.8476 C   0  0  0  0  0  0  0  0  0  0  0  0
  -12.2863    1.6274  -23.4821 C   0  0  0  0  0  0  0  0  0  0  0  0
  -11.8741    0.1857  -23.4430 C   0  0  0  0  0  0  0  0  0  0  0  0
  -10.4617   -0.1996  -23.7692 C   0  0  0  0  0  0  0  0  0  0  0  0
   -9.4614    0.8567  -24.1347 C   0  0  0  0  0  0  0  0  0  0  0  0
   -5.8017   -6.9461  -23.8652 C   0  0  0  0  0  0  0  0  0  0  0  0
   -1.8459   -7.2540  -23.7827 C   0  0  0  0  0  0  0  0  0  0  0  0
   -3.2345   -6.7536  -23.5155 N   0  0  0  0  0  0  0  0  0  0  0  0
   -4.4131   -7.4465  -24.1325 C   0  0  0  0  0  0  0  0  0  0  0  0
   -4.2031   -8.6399  -25.0168 O   0  0  0  0  0  0  0  0  0  0  0  0
   -3.3723   -5.9704  -22.9351 H   0  0  0  0  0  0  0  0  0  0  0  0
   -7.1221   -4.5272  -25.8878 C   0  0  0  0  0  0  0  0  0  0  0  0
   -8.3506   -5.3542  -26.1254 N   0  0  0  0  0  0  0  0  0  0  0  0
   -8.3765   -6.7923  -26.5513 C   0  0  0  0  0  0  0  0  0  0  0  0
   -9.8108   -7.2154  -26.6679 C   0  0  0  0  0  0  0  0  0  0  0  0
  -10.6714   -6.0389  -26.3141 C   0  0  0  0  0  0  0  0  0  0  0  0
   -9.7689   -4.8887  -25.9788 N   0  0  0  0  0  0  0  0  0  0  0  0
 29 30  1  0  0  0
 30 31  1  0  0  0
 31 32  2  0  0  0
 31 28  1  0  0  0
 28  1  1  0  0  0
  1  2  1  0  0  0
  3  2  1  0  0  0
  3  4  1  0  0  0
  4  5  2  0  0  0
  4  6  1  0  0  0
  6 18  1  0  0  0
 18 19  2  0  0  0
 19 20  1  0  0  0
 20 21  2  0  0  0
 21 22  1  0  0  0
 22 23  2  0  0  0
 23 24  1  0  0  0
 24 25  2  0  0  0
 25 26  1  0  0  0
 26 27  2  0  0  0
  6  7  1  0  0  0
  7  8  1  0  0  0
  8 34  1  0  0  0
 34 35  1  0  0  0
 35 36  1  0  0  0
 36 37  2  0  0  0
 37 38  1  0  0  0
 38 39  2  0  0  0
  3  9  1  0  0  0
  9 10  2  0  0  0
 10 11  1  0  0  0
 11 12  1  0  0  0
 11 13  2  0  0  0
 13 14  1  0  0  0
 14 15  2  0  0  0
 15 16  1  0  0  0
 16 17  2  0  0  0
 16  1  1  0  0  0
  8  3  1  0  0  0
 39 35  1  0  0  0
 15  9  1  0  0  0
 27 18  1  0  0  0
 27 22  1  0  0  0
 30 33  1  0  0  0
M  END
> <minimizedAffinity>
-7.59690

> <CNNscore>
0.2532591522

> <CNNaffinity>
6.3710637093

> <CNN_VS>
1.6135301590

> <CNNaffinity_variance>
0.0986744240

$$$$
