


 35 40  0  0  0  0  0  0  0  0999 V2000
    7.5584   -3.3458   23.4841 C   0  0  0  0  0  0  0  0  0  0  0  0
    7.7652   -2.0746   22.7151 C   0  0  0  0  0  0  0  0  0  0  0  0
    6.6699   -1.8365   21.7182 C   0  0  0  0  0  0  0  0  0  0  0  0
    6.9644   -0.5505   21.0044 N   0  0  0  0  0  0  0  0  0  0  0  0
    8.2416    0.0061   21.5602 C   0  0  0  0  0  0  0  0  0  0  0  0
    8.9071    1.2809   21.1335 O   0  0  0  0  0  0  0  0  0  0  0  0
    8.7365   -0.9358   22.6174 C   0  0  0  0  0  0  0  0  0  0  0  0
    9.6152    0.2616   22.4074 C   0  0  0  0  0  0  0  0  0  0  0  0
   10.8624    0.4291   23.2237 N   0  0  0  0  0  0  0  0  0  0  0  0
   11.2311   -0.6008   24.2500 C   0  0  0  0  0  0  0  0  0  0  0  0
   12.4783   -0.4334   25.0663 O   0  0  0  0  0  0  0  0  0  0  0  0
   10.3524   -1.7983   24.4601 C   0  0  0  0  0  0  0  0  0  0  0  0
   10.7210   -2.8283   25.4864 C   0  0  0  0  0  0  0  0  0  0  0  0
    9.8423   -4.0257   25.6964 C   0  0  0  0  0  0  0  0  0  0  0  0
    8.5951   -4.1931   24.8801 C   0  0  0  0  0  0  0  0  0  0  0  0
    7.7164   -5.3906   25.0902 F   0  0  0  0  0  0  0  0  0  0  0  0
    8.2265   -3.1632   23.8538 C   0  0  0  0  0  0  0  0  0  0  0  0
    9.1051   -1.9658   23.6438 C   0  0  0  0  0  0  0  0  0  0  0  0
    6.1285    0.0699   19.9245 C   0  0  0  0  0  0  0  0  0  0  0  0
    6.5406   -0.0614   18.4883 C   0  0  0  0  0  0  0  0  0  0  0  0
    5.7047    0.5590   17.4083 N   0  0  0  0  0  0  0  0  0  0  0  0
    4.4566    1.3107   17.7647 C   0  0  0  0  0  0  0  0  0  0  0  0
    4.0444    1.4421   19.2010 C   0  0  0  0  0  0  0  0  0  0  0  0
    2.7962    2.1939   19.5573 C   0  0  0  0  0  0  0  0  0  0  0  0
    2.3841    2.3252   20.9936 C   0  0  0  0  0  0  0  0  0  0  0  0
    3.2200    1.7048   22.0734 C   0  0  0  0  0  0  0  0  0  0  0  0
    4.4682    0.9530   21.7171 C   0  0  0  0  0  0  0  0  0  0  0  0
    4.8803    0.8217   20.2809 C   0  0  0  0  0  0  0  0  0  0  0  0
   11.7411    1.6266   23.0136 C   0  0  0  0  0  0  0  0  0  0  0  0
   11.1365    2.9975   22.9442 C   0  0  0  0  0  0  0  0  0  0  0  0
    9.6889    3.3340   23.1472 C   0  0  0  0  0  0  0  0  0  0  0  0
    9.5310    4.8172   22.9880 N   0  0  0  0  0  0  0  0  0  0  0  0
   10.8811    5.3974   22.6867 N   0  0  0  0  0  0  0  0  0  0  0  0
   11.1855    6.8475   22.4535 C   0  0  0  0  0  0  0  0  0  0  0  0
   11.8733    4.2727   22.6597 N   0  0  0  0  0  0  0  0  0  0  0  0
  2  1  1  0  0  0
  2  3  1  0  0  0
  3  4  1  0  0  0
  4 19  1  0  0  0
 19 20  2  0  0  0
 20 21  1  0  0  0
 21 22  2  0  0  0
 22 23  1  0  0  0
 23 24  2  0  0  0
 24 25  1  0  0  0
 25 26  2  0  0  0
 26 27  1  0  0  0
 27 28  2  0  0  0
  4  5  1  0  0  0
  5  6  2  0  0  0
  5  7  1  0  0  0
  7  8  1  0  0  0
  8  9  1  0  0  0
  9 29  1  0  0  0
 29 30  1  0  0  0
 30 31  1  0  0  0
 31 32  2  0  0  0
 32 33  1  0  0  0
 33 34  1  0  0  0
 33 35  1  0  0  0
  9 10  1  0  0  0
 10 11  2  0  0  0
 10 12  1  0  0  0
 12 13  2  0  0  0
 13 14  1  0  0  0
 14 15  2  0  0  0
 15 16  1  0  0  0
 15 17  1  0  0  0
 17 18  2  0  0  0
  7  2  1  0  0  0
 35 30  2  0  0  0
 18 12  1  0  0  0
 28 19  1  0  0  0
 18  7  1  0  0  0
 28 23  1  0  0  0
M  END
> <minimizedAffinity>
-9.85648

> <CNNscore>
0.7530809641

> <CNNaffinity>
7.0369477272

> <CNN_VS>
5.2993912697

> <CNNaffinity_variance>
0.1086593866

$$$$



 35 40  0  0  0  0  0  0  0  0999 V2000
   10.9867   -3.3778   26.0246 C   0  0  0  0  0  0  0  0  0  0  0  0
    9.6010   -2.9562   25.6345 C   0  0  0  0  0  0  0  0  0  0  0  0
    8.5565   -3.8823   26.1835 C   0  0  0  0  0  0  0  0  0  0  0  0
    7.2137   -3.3803   25.7421 N   0  0  0  0  0  0  0  0  0  0  0  0
    7.4284   -2.1439   24.9203 C   0  0  0  0  0  0  0  0  0  0  0  0
    6.3558   -1.3152   24.2777 O   0  0  0  0  0  0  0  0  0  0  0  0
    8.9038   -1.8819   24.8537 C   0  0  0  0  0  0  0  0  0  0  0  0
    8.0719   -0.8787   24.1111 C   0  0  0  0  0  0  0  0  0  0  0  0
    8.7339    0.2582   23.3904 N   0  0  0  0  0  0  0  0  0  0  0  0
   10.2277    0.3918   23.4123 C   0  0  0  0  0  0  0  0  0  0  0  0
   10.8897    1.5286   22.6916 O   0  0  0  0  0  0  0  0  0  0  0  0
   11.0597   -0.6114   24.1550 C   0  0  0  0  0  0  0  0  0  0  0  0
   12.5535   -0.4777   24.1769 C   0  0  0  0  0  0  0  0  0  0  0  0
   13.3854   -1.4809   24.9196 C   0  0  0  0  0  0  0  0  0  0  0  0
   12.7234   -2.6178   25.6403 C   0  0  0  0  0  0  0  0  0  0  0  0
   13.5554   -3.6210   26.3830 F   0  0  0  0  0  0  0  0  0  0  0  0
   11.2296   -2.7514   25.6184 C   0  0  0  0  0  0  0  0  0  0  0  0
   10.3977   -1.7482   24.8757 C   0  0  0  0  0  0  0  0  0  0  0  0
    5.8889   -4.0049   26.0657 C   0  0  0  0  0  0  0  0  0  0  0  0
    5.1444   -4.7719   25.0135 C   0  0  0  0  0  0  0  0  0  0  0  0
    3.8196   -5.3965   25.3370 N   0  0  0  0  0  0  0  0  0  0  0  0
    3.2393   -5.2540   26.7129 C   0  0  0  0  0  0  0  0  0  0  0  0
    3.9838   -4.4869   27.7651 C   0  0  0  0  0  0  0  0  0  0  0  0
    3.4035   -4.3444   29.1410 C   0  0  0  0  0  0  0  0  0  0  0  0
    4.1481   -3.5772   30.1932 C   0  0  0  0  0  0  0  0  0  0  0  0
    5.4729   -2.9527   29.8696 C   0  0  0  0  0  0  0  0  0  0  0  0
    6.0531   -3.0952   28.4938 C   0  0  0  0  0  0  0  0  0  0  0  0
    5.3087   -3.8623   27.4416 C   0  0  0  0  0  0  0  0  0  0  0  0
    7.9019    1.2614   22.6477 C   0  0  0  0  0  0  0  0  0  0  0  0
    7.2081    0.8672   21.3776 C   0  0  0  0  0  0  0  0  0  0  0  0
    7.5757   -0.2879   20.4941 C   0  0  0  0  0  0  0  0  0  0  0  0
    6.6196   -0.3101   19.3385 N   0  0  0  0  0  0  0  0  0  0  0  0
    5.6611    0.8312   19.5078 N   0  0  0  0  0  0  0  0  0  0  0  0
    4.5364    1.1831   18.5799 C   0  0  0  0  0  0  0  0  0  0  0  0
    6.0248    1.5588   20.7681 N   0  0  0  0  0  0  0  0  0  0  0  0
  2  1  1  0  0  0
  2  3  1  0  0  0
  3  4  1  0  0  0
  4 19  1  0  0  0
 19 20  2  0  0  0
 20 21  1  0  0  0
 21 22  2  0  0  0
 22 23  1  0  0  0
 23 24  2  0  0  0
 24 25  1  0  0  0
 25 26  2  0  0  0
 26 27  1  0  0  0
 27 28  2  0  0  0
  4  5  1  0  0  0
  5  6  2  0  0  0
  5  7  1  0  0  0
  7  8  1  0  0  0
  8  9  1  0  0  0
  9 29  1  0  0  0
 29 30  1  0  0  0
 30 31  1  0  0  0
 31 32  2  0  0  0
 32 33  1  0  0  0
 33 34  1  0  0  0
 33 35  1  0  0  0
  9 10  1  0  0  0
 10 11  2  0  0  0
 10 12  1  0  0  0
 12 13  2  0  0  0
 13 14  1  0  0  0
 14 15  2  0  0  0
 15 16  1  0  0  0
 15 17  1  0  0  0
 17 18  2  0  0  0
  7  2  1  0  0  0
 35 30  2  0  0  0
 18 12  1  0  0  0
 28 19  1  0  0  0
 18  7  1  0  0  0
 28 23  1  0  0  0
M  END
> <minimizedAffinity>
-8.90468

> <CNNscore>
0.4953128994

> <CNNaffinity>
6.7595267296

> <CNN_VS>
3.3480808735

> <CNNaffinity_variance>
0.0924895257

$$$$



 35 40  0  0  0  0  0  0  0  0999 V2000
   10.6386   -3.7206   25.4795 C   0  0  0  0  0  0  0  0  0  0  0  0
    9.3432   -3.3814   24.8035 C   0  0  0  0  0  0  0  0  0  0  0  0
    8.3290   -4.4768   24.9505 C   0  0  0  0  0  0  0  0  0  0  0  0
    7.0766   -4.0465   24.2460 N   0  0  0  0  0  0  0  0  0  0  0  0
    7.3168   -2.6852   23.6637 C   0  0  0  0  0  0  0  0  0  0  0  0
    6.3294   -1.8768   22.8753 O   0  0  0  0  0  0  0  0  0  0  0  0
    8.7176   -2.2741   24.0083 C   0  0  0  0  0  0  0  0  0  0  0  0
    7.9627   -1.2557   23.2065 C   0  0  0  0  0  0  0  0  0  0  0  0
    8.6221    0.0359   22.8231 N   0  0  0  0  0  0  0  0  0  0  0  0
   10.0364    0.3091   23.2415 C   0  0  0  0  0  0  0  0  0  0  0  0
   10.6958    1.6006   22.8581 O   0  0  0  0  0  0  0  0  0  0  0  0
   10.7914   -0.7094   24.0433 C   0  0  0  0  0  0  0  0  0  0  0  0
   12.2057   -0.4363   24.4616 C   0  0  0  0  0  0  0  0  0  0  0  0
   12.9606   -1.4547   25.2634 C   0  0  0  0  0  0  0  0  0  0  0  0
   12.3012   -2.7463   25.6468 C   0  0  0  0  0  0  0  0  0  0  0  0
   13.0562   -3.7648   26.4486 F   0  0  0  0  0  0  0  0  0  0  0  0
   10.8869   -3.0194   25.2284 C   0  0  0  0  0  0  0  0  0  0  0  0
   10.1320   -2.0010   24.4267 C   0  0  0  0  0  0  0  0  0  0  0  0
    5.8070   -4.8385   24.1421 C   0  0  0  0  0  0  0  0  0  0  0  0
    5.4458   -5.5106   22.8507 C   0  0  0  0  0  0  0  0  0  0  0  0
    4.1762   -6.3025   22.7468 N   0  0  0  0  0  0  0  0  0  0  0  0
    3.2677   -6.4223   23.9344 C   0  0  0  0  0  0  0  0  0  0  0  0
    3.6289   -5.7502   25.2258 C   0  0  0  0  0  0  0  0  0  0  0  0
    2.7203   -5.8700   26.4134 C   0  0  0  0  0  0  0  0  0  0  0  0
    3.0816   -5.1979   27.7048 C   0  0  0  0  0  0  0  0  0  0  0  0
    4.3512   -4.4060   27.8086 C   0  0  0  0  0  0  0  0  0  0  0  0
    5.2597   -4.2861   26.6211 C   0  0  0  0  0  0  0  0  0  0  0  0
    4.8985   -4.9582   25.3297 C   0  0  0  0  0  0  0  0  0  0  0  0
    7.8671    1.0544   22.0213 C   0  0  0  0  0  0  0  0  0  0  0  0
    7.2461    0.6678   20.7118 C   0  0  0  0  0  0  0  0  0  0  0  0
    7.6629   -0.4824   19.8439 C   0  0  0  0  0  0  0  0  0  0  0  0
    6.7737   -0.4976   18.6359 N   0  0  0  0  0  0  0  0  0  0  0  0
    5.8073    0.6432   18.7573 N   0  0  0  0  0  0  0  0  0  0  0  0
    4.7370    1.0010   17.7693 C   0  0  0  0  0  0  0  0  0  0  0  0
    6.0993    1.3634   20.0403 N   0  0  0  0  0  0  0  0  0  0  0  0
  2  1  1  0  0  0
  2  3  1  0  0  0
  3  4  1  0  0  0
  4 19  1  0  0  0
 19 20  2  0  0  0
 20 21  1  0  0  0
 21 22  2  0  0  0
 22 23  1  0  0  0
 23 24  2  0  0  0
 24 25  1  0  0  0
 25 26  2  0  0  0
 26 27  1  0  0  0
 27 28  2  0  0  0
  4  5  1  0  0  0
  5  6  2  0  0  0
  5  7  1  0  0  0
  7  8  1  0  0  0
  8  9  1  0  0  0
  9 29  1  0  0  0
 29 30  1  0  0  0
 30 31  1  0  0  0
 31 32  2  0  0  0
 32 33  1  0  0  0
 33 34  1  0  0  0
 33 35  1  0  0  0
  9 10  1  0  0  0
 10 11  2  0  0  0
 10 12  1  0  0  0
 12 13  2  0  0  0
 13 14  1  0  0  0
 14 15  2  0  0  0
 15 16  1  0  0  0
 15 17  1  0  0  0
 17 18  2  0  0  0
  7  2  1  0  0  0
 35 30  2  0  0  0
 18 12  1  0  0  0
 28 19  1  0  0  0
 18  7  1  0  0  0
 28 23  1  0  0  0
M  END
> <minimizedAffinity>
-9.35678

> <CNNscore>
0.4847212732

> <CNNaffinity>
6.7338066101

> <CNN_VS>
3.2640192509

> <CNNaffinity_variance>
0.0842178613

$$$$



 35 40  0  0  0  0  0  0  0  0999 V2000
    9.1306   -0.9364   23.6976 C   0  0  0  0  0  0  0  0  0  0  0  0
    7.9692   -1.3344   22.8357 C   0  0  0  0  0  0  0  0  0  0  0  0
    7.5751   -0.2431   21.8849 C   0  0  0  0  0  0  0  0  0  0  0  0
    6.4135   -0.7334   21.0723 N   0  0  0  0  0  0  0  0  0  0  0  0
    6.0897   -2.1277   21.5209 C   0  0  0  0  0  0  0  0  0  0  0  0
    4.9964   -2.9978   20.9754 O   0  0  0  0  0  0  0  0  0  0  0  0
    7.0512   -2.4991   22.6107 C   0  0  0  0  0  0  0  0  0  0  0  0
    6.0637   -3.5771   22.2748 C   0  0  0  0  0  0  0  0  0  0  0  0
    6.1006   -4.8838   23.0104 N   0  0  0  0  0  0  0  0  0  0  0  0
    7.1250   -5.1125   24.0820 C   0  0  0  0  0  0  0  0  0  0  0  0
    7.1620   -6.4192   24.8176 O   0  0  0  0  0  0  0  0  0  0  0  0
    8.1126   -4.0346   24.4179 C   0  0  0  0  0  0  0  0  0  0  0  0
    9.1370   -4.2633   25.4894 C   0  0  0  0  0  0  0  0  0  0  0  0
   10.1245   -3.1854   25.8253 C   0  0  0  0  0  0  0  0  0  0  0  0
   10.0876   -1.8787   25.0896 C   0  0  0  0  0  0  0  0  0  0  0  0
   11.0751   -0.8007   25.4256 F   0  0  0  0  0  0  0  0  0  0  0  0
    9.0631   -1.6499   24.0181 C   0  0  0  0  0  0  0  0  0  0  0  0
    8.0757   -2.7278   23.6823 C   0  0  0  0  0  0  0  0  0  0  0  0
    5.7009    0.0355   19.9996 C   0  0  0  0  0  0  0  0  0  0  0  0
    6.1756   -0.0434   18.5790 C   0  0  0  0  0  0  0  0  0  0  0  0
    5.4629    0.7255   17.5062 N   0  0  0  0  0  0  0  0  0  0  0  0
    4.2755    1.5734   17.8541 C   0  0  0  0  0  0  0  0  0  0  0  0
    3.8007    1.6523   19.2749 C   0  0  0  0  0  0  0  0  0  0  0  0
    2.6132    2.5002   19.6228 C   0  0  0  0  0  0  0  0  0  0  0  0
    2.1385    2.5790   21.0435 C   0  0  0  0  0  0  0  0  0  0  0  0
    2.8512    1.8101   22.1162 C   0  0  0  0  0  0  0  0  0  0  0  0
    4.0386    0.9623   21.7682 C   0  0  0  0  0  0  0  0  0  0  0  0
    4.5134    0.8834   20.3476 C   0  0  0  0  0  0  0  0  0  0  0  0
    5.1131   -5.9617   22.6745 C   0  0  0  0  0  0  0  0  0  0  0  0
    3.8573   -6.1066   23.4820 C   0  0  0  0  0  0  0  0  0  0  0  0
    2.5821   -6.7483   23.0215 C   0  0  0  0  0  0  0  0  0  0  0  0
    1.5929   -6.6735   24.1466 N   0  0  0  0  0  0  0  0  0  0  0  0
    2.2568   -5.9856   25.3026 N   0  0  0  0  0  0  0  0  0  0  0  0
    1.6311   -5.6985   26.6352 C   0  0  0  0  0  0  0  0  0  0  0  0
    3.6563   -5.6353   24.8918 N   0  0  0  0  0  0  0  0  0  0  0  0
  2  1  1  0  0  0
  2  3  1  0  0  0
  3  4  1  0  0  0
  4 19  1  0  0  0
 19 20  2  0  0  0
 20 21  1  0  0  0
 21 22  2  0  0  0
 22 23  1  0  0  0
 23 24  2  0  0  0
 24 25  1  0  0  0
 25 26  2  0  0  0
 26 27  1  0  0  0
 27 28  2  0  0  0
  4  5  1  0  0  0
  5  6  2  0  0  0
  5  7  1  0  0  0
  7  8  1  0  0  0
  8  9  1  0  0  0
  9 29  1  0  0  0
 29 30  1  0  0  0
 30 31  1  0  0  0
 31 32  2  0  0  0
 32 33  1  0  0  0
 33 34  1  0  0  0
 33 35  1  0  0  0
  9 10  1  0  0  0
 10 11  2  0  0  0
 10 12  1  0  0  0
 12 13  2  0  0  0
 13 14  1  0  0  0
 14 15  2  0  0  0
 15 16  1  0  0  0
 15 17  1  0  0  0
 17 18  2  0  0  0
  7  2  1  0  0  0
 35 30  2  0  0  0
 18 12  1  0  0  0
 28 19  1  0  0  0
 18  7  1  0  0  0
 28 23  1  0  0  0
M  END
> <minimizedAffinity>
-8.35048

> <CNNscore>
0.4806309640

> <CNNaffinity>
6.6183319092

> <CNN_VS>
3.1809751987

> <CNNaffinity_variance>
0.0129471570

$$$$



 35 40  0  0  0  0  0  0  0  0999 V2000
   10.9487   -3.2702   26.3985 C   0  0  0  0  0  0  0  0  0  0  0  0
    9.6111   -2.9642   25.7924 C   0  0  0  0  0  0  0  0  0  0  0  0
    8.5185   -3.7991   26.3916 C   0  0  0  0  0  0  0  0  0  0  0  0
    7.2287   -3.4225   25.7249 N   0  0  0  0  0  0  0  0  0  0  0  0
    7.5242   -2.3547   24.7136 C   0  0  0  0  0  0  0  0  0  0  0  0
    6.5230   -1.6874   23.8179 O   0  0  0  0  0  0  0  0  0  0  0  0
    8.9966   -2.0715   24.7553 C   0  0  0  0  0  0  0  0  0  0  0  0
    8.2446   -1.2452   23.7546 C   0  0  0  0  0  0  0  0  0  0  0  0
    8.9743   -0.2449   22.9079 N   0  0  0  0  0  0  0  0  0  0  0  0
   10.4562   -0.0710   23.0620 C   0  0  0  0  0  0  0  0  0  0  0  0
   11.1860    0.9293   22.2153 O   0  0  0  0  0  0  0  0  0  0  0  0
   11.2084   -0.8973   24.0627 C   0  0  0  0  0  0  0  0  0  0  0  0
   12.6902   -0.7234   24.2168 C   0  0  0  0  0  0  0  0  0  0  0  0
   13.4423   -1.5497   25.2176 C   0  0  0  0  0  0  0  0  0  0  0  0
   12.7125   -2.5500   26.0642 C   0  0  0  0  0  0  0  0  0  0  0  0
   13.4647   -3.3763   27.0650 F   0  0  0  0  0  0  0  0  0  0  0  0
   11.2306   -2.7239   25.9102 C   0  0  0  0  0  0  0  0  0  0  0  0
   10.4786   -1.8976   24.9094 C   0  0  0  0  0  0  0  0  0  0  0  0
    5.8801   -4.0103   26.0179 C   0  0  0  0  0  0  0  0  0  0  0  0
    5.1543   -4.7866   24.9595 C   0  0  0  0  0  0  0  0  0  0  0  0
    3.8058   -5.3745   25.2525 N   0  0  0  0  0  0  0  0  0  0  0  0
    3.1831   -5.1859   26.6041 C   0  0  0  0  0  0  0  0  0  0  0  0
    3.9089   -4.4094   27.6626 C   0  0  0  0  0  0  0  0  0  0  0  0
    3.2862   -4.2208   29.0141 C   0  0  0  0  0  0  0  0  0  0  0  0
    4.0121   -3.4444   30.0726 C   0  0  0  0  0  0  0  0  0  0  0  0
    5.3606   -2.8567   29.7794 C   0  0  0  0  0  0  0  0  0  0  0  0
    5.9833   -3.0453   28.4279 C   0  0  0  0  0  0  0  0  0  0  0  0
    5.2575   -3.8216   27.3695 C   0  0  0  0  0  0  0  0  0  0  0  0
    8.2222    0.5814   21.9071 C   0  0  0  0  0  0  0  0  0  0  0  0
    7.8079    1.9816   22.2504 C   0  0  0  0  0  0  0  0  0  0  0  0
    8.3390    2.8047   23.3863 C   0  0  0  0  0  0  0  0  0  0  0  0
    7.6492    4.1363   23.3561 N   0  0  0  0  0  0  0  0  0  0  0  0
    6.6916    4.1362   22.2014 N   0  0  0  0  0  0  0  0  0  0  0  0
    5.7937    5.2688   21.8005 C   0  0  0  0  0  0  0  0  0  0  0  0
    6.7897    2.8045   21.5181 N   0  0  0  0  0  0  0  0  0  0  0  0
  2  1  1  0  0  0
  2  3  1  0  0  0
  3  4  1  0  0  0
  4 19  1  0  0  0
 19 20  2  0  0  0
 20 21  1  0  0  0
 21 22  2  0  0  0
 22 23  1  0  0  0
 23 24  2  0  0  0
 24 25  1  0  0  0
 25 26  2  0  0  0
 26 27  1  0  0  0
 27 28  2  0  0  0
  4  5  1  0  0  0
  5  6  2  0  0  0
  5  7  1  0  0  0
  7  8  1  0  0  0
  8  9  1  0  0  0
  9 29  1  0  0  0
 29 30  1  0  0  0
 30 31  1  0  0  0
 31 32  2  0  0  0
 32 33  1  0  0  0
 33 34  1  0  0  0
 33 35  1  0  0  0
  9 10  1  0  0  0
 10 11  2  0  0  0
 10 12  1  0  0  0
 12 13  2  0  0  0
 13 14  1  0  0  0
 14 15  2  0  0  0
 15 16  1  0  0  0
 15 17  1  0  0  0
 17 18  2  0  0  0
  7  2  1  0  0  0
 35 30  2  0  0  0
 18 12  1  0  0  0
 28 19  1  0  0  0
 18  7  1  0  0  0
 28 23  1  0  0  0
M  END
> <minimizedAffinity>
-7.97727

> <CNNscore>
0.4549123645

> <CNNaffinity>
6.7196931839

> <CNN_VS>
3.0568714142

> <CNNaffinity_variance>
0.1811646968

$$$$



 35 40  0  0  0  0  0  0  0  0999 V2000
   10.2918   -2.8469   26.3101 C   0  0  0  0  0  0  0  0  0  0  0  0
    9.1581   -1.9788   25.8502 C   0  0  0  0  0  0  0  0  0  0  0  0
    7.8458   -2.4133   26.4323 C   0  0  0  0  0  0  0  0  0  0  0  0
    6.7817   -1.4903   25.9167 N   0  0  0  0  0  0  0  0  0  0  0  0
    7.4365   -0.4853   25.0160 C   0  0  0  0  0  0  0  0  0  0  0  0
    6.7441    0.6264   24.2848 O   0  0  0  0  0  0  0  0  0  0  0  0
    8.9052   -0.7872   24.9749 C   0  0  0  0  0  0  0  0  0  0  0  0
    8.5009    0.3905   24.1386 C   0  0  0  0  0  0  0  0  0  0  0  0
    9.5351    1.1473   23.3590 N   0  0  0  0  0  0  0  0  0  0  0  0
   10.9736    0.7263   23.4157 C   0  0  0  0  0  0  0  0  0  0  0  0
   12.0078    1.4831   22.6362 O   0  0  0  0  0  0  0  0  0  0  0  0
   11.3781   -0.4515   24.2520 C   0  0  0  0  0  0  0  0  0  0  0  0
   12.8166   -0.8725   24.3087 C   0  0  0  0  0  0  0  0  0  0  0  0
   13.2210   -2.0502   25.1449 C   0  0  0  0  0  0  0  0  0  0  0  0
   12.1868   -2.8070   25.9245 C   0  0  0  0  0  0  0  0  0  0  0  0
   12.5912   -3.9848   26.7608 F   0  0  0  0  0  0  0  0  0  0  0  0
   10.7482   -2.3860   25.8678 C   0  0  0  0  0  0  0  0  0  0  0  0
   10.3439   -1.2083   25.0316 C   0  0  0  0  0  0  0  0  0  0  0  0
    5.3196   -1.5600   26.2444 C   0  0  0  0  0  0  0  0  0  0  0  0
    4.3495   -0.6583   25.5404 C   0  0  0  0  0  0  0  0  0  0  0  0
    2.8874   -0.7280   25.8680 N   0  0  0  0  0  0  0  0  0  0  0  0
    2.3954   -1.6993   26.8997 C   0  0  0  0  0  0  0  0  0  0  0  0
    3.3656   -2.6010   27.6038 C   0  0  0  0  0  0  0  0  0  0  0  0
    2.8737   -3.5725   28.6355 C   0  0  0  0  0  0  0  0  0  0  0  0
    3.8439   -4.4741   29.3395 C   0  0  0  0  0  0  0  0  0  0  0  0
    5.3060   -4.4044   29.0118 C   0  0  0  0  0  0  0  0  0  0  0  0
    5.7979   -3.4330   27.9801 C   0  0  0  0  0  0  0  0  0  0  0  0
    4.8278   -2.5314   27.2761 C   0  0  0  0  0  0  0  0  0  0  0  0
    9.1306    2.3251   22.5228 C   0  0  0  0  0  0  0  0  0  0  0  0
    7.7996    2.3322   21.8312 C   0  0  0  0  0  0  0  0  0  0  0  0
    6.7025    3.3334   22.0407 C   0  0  0  0  0  0  0  0  0  0  0  0
    5.5569    2.9594   21.1477 N   0  0  0  0  0  0  0  0  0  0  0  0
    5.9458    1.7269   20.3862 N   0  0  0  0  0  0  0  0  0  0  0  0
    5.0977    1.0082   19.3792 C   0  0  0  0  0  0  0  0  0  0  0  0
    7.3319    1.3393   20.8087 N   0  0  0  0  0  0  0  0  0  0  0  0
  2  1  1  0  0  0
  2  3  1  0  0  0
  3  4  1  0  0  0
  4 19  1  0  0  0
 19 20  2  0  0  0
 20 21  1  0  0  0
 21 22  2  0  0  0
 22 23  1  0  0  0
 23 24  2  0  0  0
 24 25  1  0  0  0
 25 26  2  0  0  0
 26 27  1  0  0  0
 27 28  2  0  0  0
  4  5  1  0  0  0
  5  6  2  0  0  0
  5  7  1  0  0  0
  7  8  1  0  0  0
  8  9  1  0  0  0
  9 29  1  0  0  0
 29 30  1  0  0  0
 30 31  1  0  0  0
 31 32  2  0  0  0
 32 33  1  0  0  0
 33 34  1  0  0  0
 33 35  1  0  0  0
  9 10  1  0  0  0
 10 11  2  0  0  0
 10 12  1  0  0  0
 12 13  2  0  0  0
 13 14  1  0  0  0
 14 15  2  0  0  0
 15 16  1  0  0  0
 15 17  1  0  0  0
 17 18  2  0  0  0
  7  2  1  0  0  0
 35 30  2  0  0  0
 18 12  1  0  0  0
 28 19  1  0  0  0
 18  7  1  0  0  0
 28 23  1  0  0  0
M  END
> <minimizedAffinity>
-8.14010

> <CNNscore>
0.3206849098

> <CNNaffinity>
6.5331621170

> <CNN_VS>
2.0950865746

> <CNNaffinity_variance>
0.1334161907

$$$$



 35 40  0  0  0  0  0  0  0  0999 V2000
    7.2030    0.2423   20.1419 C   0  0  0  0  0  0  0  0  0  0  0  0
    7.5377    0.1000   21.5972 C   0  0  0  0  0  0  0  0  0  0  0  0
    8.9663   -0.3058   21.8081 C   0  0  0  0  0  0  0  0  0  0  0  0
    9.2022   -0.4212   23.2850 N   0  0  0  0  0  0  0  0  0  0  0  0
    7.9194   -0.0868   23.9868 C   0  0  0  0  0  0  0  0  0  0  0  0
    7.7032   -0.0764   25.4711 O   0  0  0  0  0  0  0  0  0  0  0  0
    6.8906    0.2353   22.9437 C   0  0  0  0  0  0  0  0  0  0  0  0
    6.3822    0.3299   24.3517 C   0  0  0  0  0  0  0  0  0  0  0  0
    4.9567    0.7190   24.6098 N   0  0  0  0  0  0  0  0  0  0  0  0
    4.0397    1.0135   23.4599 C   0  0  0  0  0  0  0  0  0  0  0  0
    2.6142    1.4026   23.7180 O   0  0  0  0  0  0  0  0  0  0  0  0
    4.5481    0.9189   22.0518 C   0  0  0  0  0  0  0  0  0  0  0  0
    3.6311    1.2134   20.9019 C   0  0  0  0  0  0  0  0  0  0  0  0
    4.1396    1.1189   19.4939 C   0  0  0  0  0  0  0  0  0  0  0  0
    5.5651    0.7298   19.2358 C   0  0  0  0  0  0  0  0  0  0  0  0
    6.0735    0.6352   17.8278 F   0  0  0  0  0  0  0  0  0  0  0  0
    6.4821    0.4352   20.3857 C   0  0  0  0  0  0  0  0  0  0  0  0
    5.9736    0.5298   21.7937 C   0  0  0  0  0  0  0  0  0  0  0  0
   10.4941   -0.8038   23.9442 C   0  0  0  0  0  0  0  0  0  0  0  0
   11.6991    0.0776   23.8008 C   0  0  0  0  0  0  0  0  0  0  0  0
   12.9910   -0.3050   24.4601 N   0  0  0  0  0  0  0  0  0  0  0  0
   13.0777   -1.5692   25.2628 C   0  0  0  0  0  0  0  0  0  0  0  0
   11.8725   -2.4507   25.4062 C   0  0  0  0  0  0  0  0  0  0  0  0
   11.9593   -3.7149   26.2090 C   0  0  0  0  0  0  0  0  0  0  0  0
   10.7541   -4.5964   26.3523 C   0  0  0  0  0  0  0  0  0  0  0  0
    9.4623   -4.2137   25.6931 C   0  0  0  0  0  0  0  0  0  0  0  0
    9.3756   -2.9495   24.8904 C   0  0  0  0  0  0  0  0  0  0  0  0
   10.5807   -2.0680   24.7469 C   0  0  0  0  0  0  0  0  0  0  0  0
    4.4482    0.8136   26.0179 C   0  0  0  0  0  0  0  0  0  0  0  0
    5.2130    1.6010   27.0401 C   0  0  0  0  0  0  0  0  0  0  0  0
    5.6415    3.0326   26.9104 C   0  0  0  0  0  0  0  0  0  0  0  0
    6.3769    3.4116   28.1617 N   0  0  0  0  0  0  0  0  0  0  0  0
    6.4028    2.2141   29.0647 N   0  0  0  0  0  0  0  0  0  0  0  0
    7.0368    2.1474   30.4225 C   0  0  0  0  0  0  0  0  0  0  0  0
    5.6835    1.0951   28.3716 N   0  0  0  0  0  0  0  0  0  0  0  0
  2  1  1  0  0  0
  2  3  1  0  0  0
  3  4  1  0  0  0
  4 19  1  0  0  0
 19 20  2  0  0  0
 20 21  1  0  0  0
 21 22  2  0  0  0
 22 23  1  0  0  0
 23 24  2  0  0  0
 24 25  1  0  0  0
 25 26  2  0  0  0
 26 27  1  0  0  0
 27 28  2  0  0  0
  4  5  1  0  0  0
  5  6  2  0  0  0
  5  7  1  0  0  0
  7  8  1  0  0  0
  8  9  1  0  0  0
  9 29  1  0  0  0
 29 30  1  0  0  0
 30 31  1  0  0  0
 31 32  2  0  0  0
 32 33  1  0  0  0
 33 34  1  0  0  0
 33 35  1  0  0  0
  9 10  1  0  0  0
 10 11  2  0  0  0
 10 12  1  0  0  0
 12 13  2  0  0  0
 13 14  1  0  0  0
 14 15  2  0  0  0
 15 16  1  0  0  0
 15 17  1  0  0  0
 17 18  2  0  0  0
  7  2  1  0  0  0
 35 30  2  0  0  0
 18 12  1  0  0  0
 28 19  1  0  0  0
 18  7  1  0  0  0
 28 23  1  0  0  0
M  END
> <minimizedAffinity>
-8.60032

> <CNNscore>
0.3143776059

> <CNNaffinity>
6.4709115028

> <CNN_VS>
2.0343096256

> <CNNaffinity_variance>
0.0511108227

$$$$



 35 40  0  0  0  0  0  0  0  0999 V2000
   10.6654   -3.7158   25.6001 C   0  0  0  0  0  0  0  0  0  0  0  0
    9.4681   -3.3878   24.7581 C   0  0  0  0  0  0  0  0  0  0  0  0
    8.3993   -4.4344   24.8692 C   0  0  0  0  0  0  0  0  0  0  0  0
    7.2517   -4.0192   23.9971 N   0  0  0  0  0  0  0  0  0  0  0  0
    7.6112   -2.7161   23.3471 C   0  0  0  0  0  0  0  0  0  0  0  0
    6.7517   -1.9395   22.3941 O   0  0  0  0  0  0  0  0  0  0  0  0
    8.9811   -2.3258   23.8174 C   0  0  0  0  0  0  0  0  0  0  0  0
    8.3626   -1.3486   22.8621 C   0  0  0  0  0  0  0  0  0  0  0  0
    9.1135   -0.1133   22.4620 N   0  0  0  0  0  0  0  0  0  0  0  0
   10.4829    0.1448   23.0171 C   0  0  0  0  0  0  0  0  0  0  0  0
   11.2338    1.3801   22.6170 O   0  0  0  0  0  0  0  0  0  0  0  0
   11.1014   -0.8324   23.9724 C   0  0  0  0  0  0  0  0  0  0  0  0
   12.4707   -0.5743   24.5276 C   0  0  0  0  0  0  0  0  0  0  0  0
   13.0892   -1.5515   25.4828 C   0  0  0  0  0  0  0  0  0  0  0  0
   12.3383   -2.7868   25.8830 C   0  0  0  0  0  0  0  0  0  0  0  0
   12.9568   -3.7640   26.8383 F   0  0  0  0  0  0  0  0  0  0  0  0
   10.9689   -3.0449   25.3278 C   0  0  0  0  0  0  0  0  0  0  0  0
   10.3505   -2.0677   24.3726 C   0  0  0  0  0  0  0  0  0  0  0  0
    5.9696   -4.7746   23.8082 C   0  0  0  0  0  0  0  0  0  0  0  0
    5.6485   -5.3860   22.4767 C   0  0  0  0  0  0  0  0  0  0  0  0
    4.3664   -6.1413   22.2878 N   0  0  0  0  0  0  0  0  0  0  0  0
    3.4054   -6.2852   23.4305 C   0  0  0  0  0  0  0  0  0  0  0  0
    3.7265   -5.6738   24.7621 C   0  0  0  0  0  0  0  0  0  0  0  0
    2.7655   -5.8177   25.9048 C   0  0  0  0  0  0  0  0  0  0  0  0
    3.0866   -5.2063   27.2364 C   0  0  0  0  0  0  0  0  0  0  0  0
    4.3687   -4.4510   27.4252 C   0  0  0  0  0  0  0  0  0  0  0  0
    5.3297   -4.3071   26.2825 C   0  0  0  0  0  0  0  0  0  0  0  0
    5.0086   -4.9184   24.9510 C   0  0  0  0  0  0  0  0  0  0  0  0
    8.4950    0.8639   21.5066 C   0  0  0  0  0  0  0  0  0  0  0  0
    7.7741    2.0706   22.0301 C   0  0  0  0  0  0  0  0  0  0  0  0
    6.4369    2.5684   21.5674 C   0  0  0  0  0  0  0  0  0  0  0  0
    6.1002    3.7969   22.3595 N   0  0  0  0  0  0  0  0  0  0  0  0
    7.2293    4.0584   23.3118 N   0  0  0  0  0  0  0  0  0  0  0  0
    7.3097    5.1883   24.2950 C   0  0  0  0  0  0  0  0  0  0  0  0
    8.2638    2.9915   23.1082 N   0  0  0  0  0  0  0  0  0  0  0  0
  2  1  1  0  0  0
  2  3  1  0  0  0
  3  4  1  0  0  0
  4 19  1  0  0  0
 19 20  2  0  0  0
 20 21  1  0  0  0
 21 22  2  0  0  0
 22 23  1  0  0  0
 23 24  2  0  0  0
 24 25  1  0  0  0
 25 26  2  0  0  0
 26 27  1  0  0  0
 27 28  2  0  0  0
  4  5  1  0  0  0
  5  6  2  0  0  0
  5  7  1  0  0  0
  7  8  1  0  0  0
  8  9  1  0  0  0
  9 29  1  0  0  0
 29 30  1  0  0  0
 30 31  1  0  0  0
 31 32  2  0  0  0
 32 33  1  0  0  0
 33 34  1  0  0  0
 33 35  1  0  0  0
  9 10  1  0  0  0
 10 11  2  0  0  0
 10 12  1  0  0  0
 12 13  2  0  0  0
 13 14  1  0  0  0
 14 15  2  0  0  0
 15 16  1  0  0  0
 15 17  1  0  0  0
 17 18  2  0  0  0
  7  2  1  0  0  0
 35 30  2  0  0  0
 18 12  1  0  0  0
 28 19  1  0  0  0
 18  7  1  0  0  0
 28 23  1  0  0  0
M  END
> <minimizedAffinity>
-8.70511

> <CNNscore>
0.2878147960

> <CNNaffinity>
6.5193529129

> <CNN_VS>
1.8763662577

> <CNNaffinity_variance>
0.1829346567

$$$$



 35 40  0  0  0  0  0  0  0  0999 V2000
    4.7451   -2.0089   25.4131 C   0  0  0  0  0  0  0  0  0  0  0  0
    5.6321   -1.6954   24.2447 C   0  0  0  0  0  0  0  0  0  0  0  0
    4.8554   -1.1653   23.0760 C   0  0  0  0  0  0  0  0  0  0  0  0
    5.8236   -0.8836   21.9655 N   0  0  0  0  0  0  0  0  0  0  0  0
    7.1986   -1.2395   22.4479 C   0  0  0  0  0  0  0  0  0  0  0  0
    8.4689   -1.1155   21.6599 O   0  0  0  0  0  0  0  0  0  0  0  0
    7.0802   -1.7413   23.8565 C   0  0  0  0  0  0  0  0  0  0  0  0
    8.4843   -1.7302   23.3288 C   0  0  0  0  0  0  0  0  0  0  0  0
    9.6155   -2.1960   24.1968 N   0  0  0  0  0  0  0  0  0  0  0  0
    9.3426   -2.6729   25.5925 C   0  0  0  0  0  0  0  0  0  0  0  0
   10.4738   -3.1387   26.4605 O   0  0  0  0  0  0  0  0  0  0  0  0
    7.9385   -2.6840   26.1203 C   0  0  0  0  0  0  0  0  0  0  0  0
    7.6657   -3.1609   27.5160 C   0  0  0  0  0  0  0  0  0  0  0  0
    6.2617   -3.1719   28.0438 C   0  0  0  0  0  0  0  0  0  0  0  0
    5.1305   -2.7061   27.1758 C   0  0  0  0  0  0  0  0  0  0  0  0
    3.7264   -2.7172   27.7035 F   0  0  0  0  0  0  0  0  0  0  0  0
    5.4033   -2.2292   25.7800 C   0  0  0  0  0  0  0  0  0  0  0  0
    6.8073   -2.2182   25.2523 C   0  0  0  0  0  0  0  0  0  0  0  0
    5.4775   -0.3411   20.6105 C   0  0  0  0  0  0  0  0  0  0  0  0
    6.0535   -0.9753   19.3793 C   0  0  0  0  0  0  0  0  0  0  0  0
    5.7074   -0.4329   18.0243 N   0  0  0  0  0  0  0  0  0  0  0  0
    4.7854    0.7438   17.9006 C   0  0  0  0  0  0  0  0  0  0  0  0
    4.2095    1.3780   19.1319 C   0  0  0  0  0  0  0  0  0  0  0  0
    3.2874    2.5548   19.0082 C   0  0  0  0  0  0  0  0  0  0  0  0
    2.7115    3.1889   20.2395 C   0  0  0  0  0  0  0  0  0  0  0  0
    3.0576    2.6465   21.5944 C   0  0  0  0  0  0  0  0  0  0  0  0
    3.9796    1.4698   21.7181 C   0  0  0  0  0  0  0  0  0  0  0  0
    4.5555    0.8356   20.4869 C   0  0  0  0  0  0  0  0  0  0  0  0
   11.0195   -2.1849   23.6690 C   0  0  0  0  0  0  0  0  0  0  0  0
   11.6737   -0.8851   23.3049 C   0  0  0  0  0  0  0  0  0  0  0  0
   13.0283   -0.7241   22.6813 C   0  0  0  0  0  0  0  0  0  0  0  0
   13.2799    0.7424   22.4914 N   0  0  0  0  0  0  0  0  0  0  0  0
   12.0806    1.4878   22.9976 N   0  0  0  0  0  0  0  0  0  0  0  0
   11.9049    2.9774   23.0005 C   0  0  0  0  0  0  0  0  0  0  0  0
   11.0879    0.4819   23.5003 N   0  0  0  0  0  0  0  0  0  0  0  0
  2  1  1  0  0  0
  2  3  1  0  0  0
  3  4  1  0  0  0
  4 19  1  0  0  0
 19 20  2  0  0  0
 20 21  1  0  0  0
 21 22  2  0  0  0
 22 23  1  0  0  0
 23 24  2  0  0  0
 24 25  1  0  0  0
 25 26  2  0  0  0
 26 27  1  0  0  0
 27 28  2  0  0  0
  4  5  1  0  0  0
  5  6  2  0  0  0
  5  7  1  0  0  0
  7  8  1  0  0  0
  8  9  1  0  0  0
  9 29  1  0  0  0
 29 30  1  0  0  0
 30 31  1  0  0  0
 31 32  2  0  0  0
 32 33  1  0  0  0
 33 34  1  0  0  0
 33 35  1  0  0  0
  9 10  1  0  0  0
 10 11  2  0  0  0
 10 12  1  0  0  0
 12 13  2  0  0  0
 13 14  1  0  0  0
 14 15  2  0  0  0
 15 16  1  0  0  0
 15 17  1  0  0  0
 17 18  2  0  0  0
  7  2  1  0  0  0
 35 30  2  0  0  0
 18 12  1  0  0  0
 28 19  1  0  0  0
 18  7  1  0  0  0
 28 23  1  0  0  0
M  END
> <minimizedAffinity>
-8.36510

> <CNNscore>
0.2810279429

> <CNNaffinity>
6.5483183861

> <CNN_VS>
1.8402603865

> <CNNaffinity_variance>
0.0731719732

$$$$
