


 24 27  0  0  0  0  0  0  0  0999 V2000
    8.2473    5.8561   23.3295 C   0  0  0  0  0  0  0  0  0  0  0  0
    9.6217    5.3233   23.0513 C   0  0  0  0  0  0  0  0  0  0  0  0
   10.7459    6.2694   22.7496 C   0  0  0  0  0  0  0  0  0  0  0  0
   12.1202    5.7366   22.4714 O   0  0  0  0  0  0  0  0  0  0  0  0
   12.3703    4.2578   22.4949 C   0  0  0  0  0  0  0  0  0  0  0  0
   11.2461    3.3118   22.7966 C   0  0  0  0  0  0  0  0  0  0  0  0
    9.8718    3.8445   23.0748 C   0  0  0  0  0  0  0  0  0  0  0  0
   12.5601    2.6356   22.5395 N   0  0  0  0  0  0  0  0  0  0  0  0
   12.3522    1.1553   22.6653 C   0  0  0  0  0  0  0  0  0  0  0  0
   13.4024    0.0992   22.4875 O   0  0  0  0  0  0  0  0  0  0  0  0
   10.9096    0.9167   23.0001 N   0  0  0  0  0  0  0  0  0  0  0  0
   10.2260    2.2494   23.0813 C   0  0  0  0  0  0  0  0  0  0  0  0
    8.7768    2.4795   23.3924 O   0  0  0  0  0  0  0  0  0  0  0  0
   13.4099    3.0845   22.3257 H   0  0  0  0  0  0  0  0  0  0  0  0
   10.2640   -0.4198   23.2159 C   0  0  0  0  0  0  0  0  0  0  0  0
    9.0992   -0.8359   22.3674 C   0  0  0  0  0  0  0  0  0  0  0  0
    8.4536   -2.1726   22.5832 N   0  0  0  0  0  0  0  0  0  0  0  0
    8.9728   -3.0932   23.6476 C   0  0  0  0  0  0  0  0  0  0  0  0
   10.1377   -2.6771   24.4962 C   0  0  0  0  0  0  0  0  0  0  0  0
   10.6569   -3.5977   25.5605 C   0  0  0  0  0  0  0  0  0  0  0  0
   11.8218   -3.1817   26.4091 C   0  0  0  0  0  0  0  0  0  0  0  0
   12.4674   -1.8450   26.1933 C   0  0  0  0  0  0  0  0  0  0  0  0
   11.9482   -0.9244   25.1289 C   0  0  0  0  0  0  0  0  0  0  0  0
   10.7833   -1.3405   24.2803 C   0  0  0  0  0  0  0  0  0  0  0  0
  2  1  1  0  0  0
  2  3  1  0  0  0
  3  4  1  0  0  0
  4  5  1  0  0  0
  6  5  1  0  0  0
  6  7  1  0  0  0
  6  8  1  0  0  0
  8  9  1  0  0  0
  9 10  2  0  0  0
  9 11  1  0  0  0
 11 15  1  0  0  0
 15 16  2  0  0  0
 16 17  1  0  0  0
 17 18  2  0  0  0
 18 19  1  0  0  0
 19 20  2  0  0  0
 20 21  1  0  0  0
 21 22  2  0  0  0
 22 23  1  0  0  0
 23 24  2  0  0  0
 11 12  1  0  0  0
 12 13  2  0  0  0
  7  2  1  0  0  0
 24 15  1  0  0  0
 12  6  1  0  0  0
 24 19  1  0  0  0
  8 14  1  0  0  0
M  END
> <minimizedAffinity>
-7.93337

> <CNNscore>
0.6497802734

> <CNNaffinity>
5.6202402115

> <CNN_VS>
3.6519212723

> <CNNaffinity_variance>
0.0879505649

$$$$



 24 27  0  0  0  0  0  0  0  0999 V2000
   11.4728    1.4568   23.3605 C   0  0  0  0  0  0  0  0  0  0  0  0
   10.5485    0.2872   23.5273 C   0  0  0  0  0  0  0  0  0  0  0  0
   10.8263   -0.7441   24.5805 C   0  0  0  0  0  0  0  0  0  0  0  0
    9.9021   -1.9136   24.7473 O   0  0  0  0  0  0  0  0  0  0  0  0
    8.6999   -2.0519   23.8609 C   0  0  0  0  0  0  0  0  0  0  0  0
    8.4220   -1.0206   22.8078 C   0  0  0  0  0  0  0  0  0  0  0  0
    9.3463    0.1490   22.6410 C   0  0  0  0  0  0  0  0  0  0  0  0
    7.4135   -2.1299   22.8566 N   0  0  0  0  0  0  0  0  0  0  0  0
    6.3854   -1.8687   21.7959 C   0  0  0  0  0  0  0  0  0  0  0  0
    5.1934   -2.7274   21.4929 O   0  0  0  0  0  0  0  0  0  0  0  0
    6.7586   -0.5980   21.0916 N   0  0  0  0  0  0  0  0  0  0  0  0
    8.0173   -0.0738   21.7169 C   0  0  0  0  0  0  0  0  0  0  0  0
    8.7437    1.1773   21.3210 O   0  0  0  0  0  0  0  0  0  0  0  0
    7.4243   -2.8950   23.4761 H   0  0  0  0  0  0  0  0  0  0  0  0
    6.0054    0.0370   19.9605 C   0  0  0  0  0  0  0  0  0  0  0  0
    6.5058   -0.1040   18.5535 C   0  0  0  0  0  0  0  0  0  0  0  0
    5.7525    0.5310   17.4224 N   0  0  0  0  0  0  0  0  0  0  0  0
    4.4990    1.3071   17.6983 C   0  0  0  0  0  0  0  0  0  0  0  0
    3.9986    1.4483   19.1054 C   0  0  0  0  0  0  0  0  0  0  0  0
    2.7450    2.2244   19.3813 C   0  0  0  0  0  0  0  0  0  0  0  0
    2.2446    2.3655   20.7883 C   0  0  0  0  0  0  0  0  0  0  0  0
    2.9979    1.7304   21.9194 C   0  0  0  0  0  0  0  0  0  0  0  0
    4.2514    0.9543   21.6435 C   0  0  0  0  0  0  0  0  0  0  0  0
    4.7518    0.8132   20.2364 C   0  0  0  0  0  0  0  0  0  0  0  0
  2  1  1  0  0  0
  2  3  1  0  0  0
  3  4  1  0  0  0
  4  5  1  0  0  0
  6  5  1  0  0  0
  6  7  1  0  0  0
  6  8  1  0  0  0
  8  9  1  0  0  0
  9 10  2  0  0  0
  9 11  1  0  0  0
 11 15  1  0  0  0
 15 16  2  0  0  0
 16 17  1  0  0  0
 17 18  2  0  0  0
 18 19  1  0  0  0
 19 20  2  0  0  0
 20 21  1  0  0  0
 21 22  2  0  0  0
 22 23  1  0  0  0
 23 24  2  0  0  0
 11 12  1  0  0  0
 12 13  2  0  0  0
  7  2  1  0  0  0
 24 15  1  0  0  0
 12  6  1  0  0  0
 24 19  1  0  0  0
  8 14  1  0  0  0
M  END
> <minimizedAffinity>
-7.53683

> <CNNscore>
0.6401315928

> <CNNaffinity>
5.3224964142

> <CNN_VS>
3.4070980549

> <CNNaffinity_variance>
0.0231764968

$$$$



 24 27  0  0  0  0  0  0  0  0999 V2000
    6.8267   -7.0946   23.6919 C   0  0  0  0  0  0  0  0  0  0  0  0
    6.2427   -5.9330   24.4400 C   0  0  0  0  0  0  0  0  0  0  0  0
    4.8828   -6.0488   25.0622 C   0  0  0  0  0  0  0  0  0  0  0  0
    4.2989   -4.8872   25.8103 O   0  0  0  0  0  0  0  0  0  0  0  0
    5.0749   -3.6098   25.9363 C   0  0  0  0  0  0  0  0  0  0  0  0
    6.4348   -3.4940   25.3141 C   0  0  0  0  0  0  0  0  0  0  0  0
    7.0188   -4.6556   24.5660 C   0  0  0  0  0  0  0  0  0  0  0  0
    5.9830   -2.2546   26.0282 N   0  0  0  0  0  0  0  0  0  0  0  0
    7.0680   -1.2262   25.9035 C   0  0  0  0  0  0  0  0  0  0  0  0
    7.0361    0.1622   26.4704 O   0  0  0  0  0  0  0  0  0  0  0  0
    8.1903   -1.8300   25.1123 N   0  0  0  0  0  0  0  0  0  0  0  0
    7.7990   -3.2315   24.7481 C   0  0  0  0  0  0  0  0  0  0  0  0
    8.6265   -4.2005   23.9568 O   0  0  0  0  0  0  0  0  0  0  0  0
    5.1251   -2.1368   26.4965 H   0  0  0  0  0  0  0  0  0  0  0  0
    9.4777   -1.1515   24.7492 C   0  0  0  0  0  0  0  0  0  0  0  0
    9.4623    0.0691   23.8775 C   0  0  0  0  0  0  0  0  0  0  0  0
   10.7499    0.7477   23.5143 N   0  0  0  0  0  0  0  0  0  0  0  0
   12.0528    0.2057   24.0230 C   0  0  0  0  0  0  0  0  0  0  0  0
   12.0682   -1.0149   24.8948 C   0  0  0  0  0  0  0  0  0  0  0  0
   13.3711   -1.5569   25.4034 C   0  0  0  0  0  0  0  0  0  0  0  0
   13.3864   -2.7774   26.2752 C   0  0  0  0  0  0  0  0  0  0  0  0
   12.0989   -3.4560   26.6383 C   0  0  0  0  0  0  0  0  0  0  0  0
   10.7960   -2.9141   26.1297 C   0  0  0  0  0  0  0  0  0  0  0  0
   10.7806   -1.6934   25.2579 C   0  0  0  0  0  0  0  0  0  0  0  0
  2  1  1  0  0  0
  2  3  1  0  0  0
  3  4  1  0  0  0
  4  5  1  0  0  0
  6  5  1  0  0  0
  6  7  1  0  0  0
  6  8  1  0  0  0
  8  9  1  0  0  0
  9 10  2  0  0  0
  9 11  1  0  0  0
 11 15  1  0  0  0
 15 16  2  0  0  0
 16 17  1  0  0  0
 17 18  2  0  0  0
 18 19  1  0  0  0
 19 20  2  0  0  0
 20 21  1  0  0  0
 21 22  2  0  0  0
 22 23  1  0  0  0
 23 24  2  0  0  0
 11 12  1  0  0  0
 12 13  2  0  0  0
  7  2  1  0  0  0
 24 15  1  0  0  0
 12  6  1  0  0  0
 24 19  1  0  0  0
  8 14  1  0  0  0
M  END
> <minimizedAffinity>
-7.37121

> <CNNscore>
0.6341123581

> <CNNaffinity>
5.4588427544

> <CNN_VS>
3.4615197182

> <CNNaffinity_variance>
0.1213816181

$$$$



 24 27  0  0  0  0  0  0  0  0999 V2000
    3.6306    0.0231   27.7864 C   0  0  0  0  0  0  0  0  0  0  0  0
    4.0749   -1.2901   27.2136 C   0  0  0  0  0  0  0  0  0  0  0  0
    3.1663   -2.4819   27.2769 C   0  0  0  0  0  0  0  0  0  0  0  0
    3.6106   -3.7950   26.7040 O   0  0  0  0  0  0  0  0  0  0  0  0
    4.9636   -3.9165   26.0680 C   0  0  0  0  0  0  0  0  0  0  0  0
    5.8723   -2.7248   26.0048 C   0  0  0  0  0  0  0  0  0  0  0  0
    5.4279   -1.4116   26.5776 C   0  0  0  0  0  0  0  0  0  0  0  0
    6.4507   -3.9662   25.3929 N   0  0  0  0  0  0  0  0  0  0  0  0
    7.8204   -3.6348   24.8789 C   0  0  0  0  0  0  0  0  0  0  0  0
    8.7574   -4.5831   24.1914 O   0  0  0  0  0  0  0  0  0  0  0  0
    8.0885   -2.1885   25.1731 N   0  0  0  0  0  0  0  0  0  0  0  0
    6.8845   -1.6261   25.8689 C   0  0  0  0  0  0  0  0  0  0  0  0
    6.7214   -0.2132   26.3453 O   0  0  0  0  0  0  0  0  0  0  0  0
    6.0089   -4.8443   25.3383 H   0  0  0  0  0  0  0  0  0  0  0  0
    9.3406   -1.4367   24.8315 C   0  0  0  0  0  0  0  0  0  0  0  0
    9.2691   -0.2160   23.9628 C   0  0  0  0  0  0  0  0  0  0  0  0
   10.5214    0.5359   23.6212 N   0  0  0  0  0  0  0  0  0  0  0  0
   11.8451    0.0670   24.1482 C   0  0  0  0  0  0  0  0  0  0  0  0
   11.9167   -1.1539   25.0169 C   0  0  0  0  0  0  0  0  0  0  0  0
   13.2404   -1.6228   25.5440 C   0  0  0  0  0  0  0  0  0  0  0  0
   13.3120   -2.8435   26.4126 C   0  0  0  0  0  0  0  0  0  0  0  0
   12.0597   -3.5954   26.7543 C   0  0  0  0  0  0  0  0  0  0  0  0
   10.7360   -3.1265   26.2272 C   0  0  0  0  0  0  0  0  0  0  0  0
   10.6644   -1.9056   25.3585 C   0  0  0  0  0  0  0  0  0  0  0  0
  2  1  1  0  0  0
  2  3  1  0  0  0
  3  4  1  0  0  0
  4  5  1  0  0  0
  6  5  1  0  0  0
  6  7  1  0  0  0
  6  8  1  0  0  0
  8  9  1  0  0  0
  9 10  2  0  0  0
  9 11  1  0  0  0
 11 15  1  0  0  0
 15 16  2  0  0  0
 16 17  1  0  0  0
 17 18  2  0  0  0
 18 19  1  0  0  0
 19 20  2  0  0  0
 20 21  1  0  0  0
 21 22  2  0  0  0
 22 23  1  0  0  0
 23 24  2  0  0  0
 11 12  1  0  0  0
 12 13  2  0  0  0
  7  2  1  0  0  0
 24 15  1  0  0  0
 12  6  1  0  0  0
 24 19  1  0  0  0
  8 14  1  0  0  0
M  END
> <minimizedAffinity>
-6.31076

> <CNNscore>
0.6033012867

> <CNNaffinity>
5.4203481674

> <CNN_VS>
3.2701029778

> <CNNaffinity_variance>
0.4429971278

$$$$



 24 27  0  0  0  0  0  0  0  0999 V2000
   12.2303   -2.5349   26.0272 C   0  0  0  0  0  0  0  0  0  0  0  0
   11.1001   -2.3298   25.0626 C   0  0  0  0  0  0  0  0  0  0  0  0
   10.1429   -3.4495   24.7797 C   0  0  0  0  0  0  0  0  0  0  0  0
    9.0127   -3.2443   23.8150 O   0  0  0  0  0  0  0  0  0  0  0  0
    8.8396   -1.9194   23.1334 C   0  0  0  0  0  0  0  0  0  0  0  0
    9.7967   -0.7997   23.4163 C   0  0  0  0  0  0  0  0  0  0  0  0
   10.9270   -1.0049   24.3809 C   0  0  0  0  0  0  0  0  0  0  0  0
    8.7200   -0.4482   22.4329 N   0  0  0  0  0  0  0  0  0  0  0  0
    8.9278    0.9751   22.0071 C   0  0  0  0  0  0  0  0  0  0  0  0
    8.0794    1.7366   21.0323 O   0  0  0  0  0  0  0  0  0  0  0  0
   10.1330    1.5032   22.7274 N   0  0  0  0  0  0  0  0  0  0  0  0
   10.6700    0.4063   23.5983 C   0  0  0  0  0  0  0  0  0  0  0  0
   11.8696    0.4990   24.4940 O   0  0  0  0  0  0  0  0  0  0  0  0
    8.0028   -1.0465   22.1216 H   0  0  0  0  0  0  0  0  0  0  0  0
   10.7013    2.8853   22.5993 C   0  0  0  0  0  0  0  0  0  0  0  0
   12.1134    3.0751   22.1303 C   0  0  0  0  0  0  0  0  0  0  0  0
   12.6818    4.4574   22.0022 N   0  0  0  0  0  0  0  0  0  0  0  0
   11.8381    5.6498   22.3431 C   0  0  0  0  0  0  0  0  0  0  0  0
   10.4259    5.4600   22.8121 C   0  0  0  0  0  0  0  0  0  0  0  0
    9.5822    6.6525   23.1530 C   0  0  0  0  0  0  0  0  0  0  0  0
    8.1701    6.4627   23.6220 C   0  0  0  0  0  0  0  0  0  0  0  0
    7.6018    5.0804   23.7502 C   0  0  0  0  0  0  0  0  0  0  0  0
    8.4455    3.8880   23.4093 C   0  0  0  0  0  0  0  0  0  0  0  0
    9.8576    4.0778   22.9402 C   0  0  0  0  0  0  0  0  0  0  0  0
  2  1  1  0  0  0
  2  3  1  0  0  0
  3  4  1  0  0  0
  4  5  1  0  0  0
  6  5  1  0  0  0
  6  7  1  0  0  0
  6  8  1  0  0  0
  8  9  1  0  0  0
  9 10  2  0  0  0
  9 11  1  0  0  0
 11 15  1  0  0  0
 15 16  2  0  0  0
 16 17  1  0  0  0
 17 18  2  0  0  0
 18 19  1  0  0  0
 19 20  2  0  0  0
 20 21  1  0  0  0
 21 22  2  0  0  0
 22 23  1  0  0  0
 23 24  2  0  0  0
 11 12  1  0  0  0
 12 13  2  0  0  0
  7  2  1  0  0  0
 24 15  1  0  0  0
 12  6  1  0  0  0
 24 19  1  0  0  0
  8 14  1  0  0  0
M  END
> <minimizedAffinity>
-6.91657

> <CNNscore>
0.5972838998

> <CNNaffinity>
5.4111237526

> <CNN_VS>
3.2319769859

> <CNNaffinity_variance>
0.2440781295

$$$$



 24 27  0  0  0  0  0  0  0  0999 V2000
    2.4808    1.9717   19.1059 C   0  0  0  0  0  0  0  0  0  0  0  0
    3.8727    1.4354   19.2639 C   0  0  0  0  0  0  0  0  0  0  0  0
    4.7311    1.2096   18.0548 C   0  0  0  0  0  0  0  0  0  0  0  0
    6.1230    0.6732   18.2127 O   0  0  0  0  0  0  0  0  0  0  0  0
    6.6565    0.3626   19.5798 C   0  0  0  0  0  0  0  0  0  0  0  0
    5.7980    0.5885   20.7889 C   0  0  0  0  0  0  0  0  0  0  0  0
    4.4061    1.1248   20.6310 C   0  0  0  0  0  0  0  0  0  0  0  0
    7.1627    0.0499   21.1015 N   0  0  0  0  0  0  0  0  0  0  0  0
    7.2686   -0.1095   22.5893 C   0  0  0  0  0  0  0  0  0  0  0  0
    8.4638   -0.6194   23.3386 O   0  0  0  0  0  0  0  0  0  0  0  0
    5.9693    0.3306   23.1962 N   0  0  0  0  0  0  0  0  0  0  0  0
    5.0605    0.7619   22.0836 C   0  0  0  0  0  0  0  0  0  0  0  0
    3.6600    1.2764   22.2383 O   0  0  0  0  0  0  0  0  0  0  0  0
    7.8655   -0.1618   20.4454 H   0  0  0  0  0  0  0  0  0  0  0  0
    5.6372    0.3380   24.6589 C   0  0  0  0  0  0  0  0  0  0  0  0
    5.1945    1.6090   25.3211 C   0  0  0  0  0  0  0  0  0  0  0  0
    4.8623    1.6164   26.7838 N   0  0  0  0  0  0  0  0  0  0  0  0
    4.9729    0.3528   27.5845 C   0  0  0  0  0  0  0  0  0  0  0  0
    5.4156   -0.9183   26.9223 C   0  0  0  0  0  0  0  0  0  0  0  0
    5.5262   -2.1820   27.7229 C   0  0  0  0  0  0  0  0  0  0  0  0
    5.9689   -3.4530   27.0608 C   0  0  0  0  0  0  0  0  0  0  0  0
    6.3010   -3.4604   25.5980 C   0  0  0  0  0  0  0  0  0  0  0  0
    6.1904   -2.1968   24.7974 C   0  0  0  0  0  0  0  0  0  0  0  0
    5.7477   -0.9256   25.4595 C   0  0  0  0  0  0  0  0  0  0  0  0
  2  1  1  0  0  0
  2  3  1  0  0  0
  3  4  1  0  0  0
  4  5  1  0  0  0
  6  5  1  0  0  0
  6  7  1  0  0  0
  6  8  1  0  0  0
  8  9  1  0  0  0
  9 10  2  0  0  0
  9 11  1  0  0  0
 11 15  1  0  0  0
 15 16  2  0  0  0
 16 17  1  0  0  0
 17 18  2  0  0  0
 18 19  1  0  0  0
 19 20  2  0  0  0
 20 21  1  0  0  0
 21 22  2  0  0  0
 22 23  1  0  0  0
 23 24  2  0  0  0
 11 12  1  0  0  0
 12 13  2  0  0  0
  7  2  1  0  0  0
 24 15  1  0  0  0
 12  6  1  0  0  0
 24 19  1  0  0  0
  8 14  1  0  0  0
M  END
> <minimizedAffinity>
-4.74115

> <CNNscore>
0.5326685309

> <CNNaffinity>
5.1536397934

> <CNN_VS>
2.7451817989

> <CNNaffinity_variance>
0.3879613578

$$$$



 24 27  0  0  0  0  0  0  0  0999 V2000
    6.5853    3.7777   21.9848 C   0  0  0  0  0  0  0  0  0  0  0  0
    6.1523    2.3421   21.9435 C   0  0  0  0  0  0  0  0  0  0  0  0
    4.7485    1.9932   21.5469 C   0  0  0  0  0  0  0  0  0  0  0  0
    4.3155    0.5577   21.5056 O   0  0  0  0  0  0  0  0  0  0  0  0
    5.2864   -0.5290   21.8609 C   0  0  0  0  0  0  0  0  0  0  0  0
    6.6903   -0.1802   22.2575 C   0  0  0  0  0  0  0  0  0  0  0  0
    7.1233    1.2554   22.2988 C   0  0  0  0  0  0  0  0  0  0  0  0
    6.4031   -1.6524   22.2619 N   0  0  0  0  0  0  0  0  0  0  0  0
    7.6543   -2.3676   22.6780 C   0  0  0  0  0  0  0  0  0  0  0  0
    7.8165   -3.8524   22.8168 O   0  0  0  0  0  0  0  0  0  0  0  0
    8.7149   -1.3374   22.9308 N   0  0  0  0  0  0  0  0  0  0  0  0
    8.1191    0.0145   22.6710 C   0  0  0  0  0  0  0  0  0  0  0  0
    8.8276    1.3301   22.8016 O   0  0  0  0  0  0  0  0  0  0  0  0
    5.5442   -2.0751   22.0320 H   0  0  0  0  0  0  0  0  0  0  0  0
   10.1237   -1.6109   23.3668 C   0  0  0  0  0  0  0  0  0  0  0  0
   11.2732   -1.1626   22.5139 C   0  0  0  0  0  0  0  0  0  0  0  0
   12.6821   -1.4362   22.9500 N   0  0  0  0  0  0  0  0  0  0  0  0
   12.9415   -2.1582   24.2390 C   0  0  0  0  0  0  0  0  0  0  0  0
   11.7919   -2.6065   25.0920 C   0  0  0  0  0  0  0  0  0  0  0  0
   12.0512   -3.3285   26.3810 C   0  0  0  0  0  0  0  0  0  0  0  0
   10.9017   -3.7768   27.2339 C   0  0  0  0  0  0  0  0  0  0  0  0
    9.4928   -3.5032   26.7978 C   0  0  0  0  0  0  0  0  0  0  0  0
    9.2334   -2.7812   25.5088 C   0  0  0  0  0  0  0  0  0  0  0  0
   10.3830   -2.3329   24.6558 C   0  0  0  0  0  0  0  0  0  0  0  0
  2  1  1  0  0  0
  2  3  1  0  0  0
  3  4  1  0  0  0
  4  5  1  0  0  0
  6  5  1  0  0  0
  6  7  1  0  0  0
  6  8  1  0  0  0
  8  9  1  0  0  0
  9 10  2  0  0  0
  9 11  1  0  0  0
 11 15  1  0  0  0
 15 16  2  0  0  0
 16 17  1  0  0  0
 17 18  2  0  0  0
 18 19  1  0  0  0
 19 20  2  0  0  0
 20 21  1  0  0  0
 21 22  2  0  0  0
 22 23  1  0  0  0
 23 24  2  0  0  0
 11 12  1  0  0  0
 12 13  2  0  0  0
  7  2  1  0  0  0
 24 15  1  0  0  0
 12  6  1  0  0  0
 24 19  1  0  0  0
  8 14  1  0  0  0
M  END
> <minimizedAffinity>
-6.84058

> <CNNscore>
0.4404980838

> <CNNaffinity>
5.2779979706

> <CNN_VS>
2.3249480724

> <CNNaffinity_variance>
0.1196344495

$$$$



 24 27  0  0  0  0  0  0  0  0999 V2000
    1.1307    2.4960   22.7520 C   0  0  0  0  0  0  0  0  0  0  0  0
    1.8539    2.3268   21.4487 C   0  0  0  0  0  0  0  0  0  0  0  0
    1.2738    2.8988   20.1893 C   0  0  0  0  0  0  0  0  0  0  0  0
    1.9969    2.7296   18.8861 O   0  0  0  0  0  0  0  0  0  0  0  0
    3.3002    1.9884   18.8423 C   0  0  0  0  0  0  0  0  0  0  0  0
    3.8804    1.4164   20.1017 C   0  0  0  0  0  0  0  0  0  0  0  0
    3.1572    1.5856   21.4049 C   0  0  0  0  0  0  0  0  0  0  0  0
    4.7133    1.1689   18.8790 N   0  0  0  0  0  0  0  0  0  0  0  0
    5.9274    0.3920   19.2946 C   0  0  0  0  0  0  0  0  0  0  0  0
    7.0303   -0.0709   18.3895 O   0  0  0  0  0  0  0  0  0  0  0  0
    5.8448    0.1595   20.7742 N   0  0  0  0  0  0  0  0  0  0  0  0
    4.5797    0.7925   21.2730 C   0  0  0  0  0  0  0  0  0  0  0  0
    4.0984    0.8004   22.6936 O   0  0  0  0  0  0  0  0  0  0  0  0
    4.5005    1.4644   17.9643 H   0  0  0  0  0  0  0  0  0  0  0  0
    6.8506   -0.5769   21.6084 C   0  0  0  0  0  0  0  0  0  0  0  0
    6.6219   -2.0165   21.9619 C   0  0  0  0  0  0  0  0  0  0  0  0
    7.6278   -2.7529   22.7961 N   0  0  0  0  0  0  0  0  0  0  0  0
    8.8624   -2.0496   23.2769 C   0  0  0  0  0  0  0  0  0  0  0  0
    9.0911   -0.6098   22.9234 C   0  0  0  0  0  0  0  0  0  0  0  0
   10.3257    0.0935   23.4042 C   0  0  0  0  0  0  0  0  0  0  0  0
   10.5544    1.5332   23.0507 C   0  0  0  0  0  0  0  0  0  0  0  0
    9.5485    2.2696   22.2164 C   0  0  0  0  0  0  0  0  0  0  0  0
    8.3139    1.5662   21.7356 C   0  0  0  0  0  0  0  0  0  0  0  0
    8.0852    0.1265   22.0891 C   0  0  0  0  0  0  0  0  0  0  0  0
  2  1  1  0  0  0
  2  3  1  0  0  0
  3  4  1  0  0  0
  4  5  1  0  0  0
  6  5  1  0  0  0
  6  7  1  0  0  0
  6  8  1  0  0  0
  8  9  1  0  0  0
  9 10  2  0  0  0
  9 11  1  0  0  0
 11 15  1  0  0  0
 15 16  2  0  0  0
 16 17  1  0  0  0
 17 18  2  0  0  0
 18 19  1  0  0  0
 19 20  2  0  0  0
 20 21  1  0  0  0
 21 22  2  0  0  0
 22 23  1  0  0  0
 23 24  2  0  0  0
 11 12  1  0  0  0
 12 13  2  0  0  0
  7  2  1  0  0  0
 24 15  1  0  0  0
 12  6  1  0  0  0
 24 19  1  0  0  0
  8 14  1  0  0  0
M  END
> <minimizedAffinity>
-6.97085

> <CNNscore>
0.4217594564

> <CNNaffinity>
5.1836929321

> <CNN_VS>
2.1862714291

> <CNNaffinity_variance>
0.1910309047

$$$$



 24 27  0  0  0  0  0  0  0  0999 V2000
   -1.4768    4.6415   18.9689 C   0  0  0  0  0  0  0  0  0  0  0  0
   -0.2685    5.1017   19.7293 C   0  0  0  0  0  0  0  0  0  0  0  0
   -0.3059    6.3976   20.4837 C   0  0  0  0  0  0  0  0  0  0  0  0
    0.9024    6.8579   21.2441 O   0  0  0  0  0  0  0  0  0  0  0  0
    2.1481    6.0222   21.2500 C   0  0  0  0  0  0  0  0  0  0  0  0
    2.1854    4.7264   20.4955 C   0  0  0  0  0  0  0  0  0  0  0  0
    0.9771    4.2661   19.7352 C   0  0  0  0  0  0  0  0  0  0  0  0
    3.4645    5.0555   21.2066 N   0  0  0  0  0  0  0  0  0  0  0  0
    4.4404    3.9474   20.9419 C   0  0  0  0  0  0  0  0  0  0  0  0
    5.8455    3.8673   21.4608 O   0  0  0  0  0  0  0  0  0  0  0  0
    3.7643    2.9334   20.0673 N   0  0  0  0  0  0  0  0  0  0  0  0
    2.3707    3.4149   19.7914 C   0  0  0  0  0  0  0  0  0  0  0  0
    1.3428    2.7089   18.9578 O   0  0  0  0  0  0  0  0  0  0  0  0
    3.6339    5.8579   21.7513 H   0  0  0  0  0  0  0  0  0  0  0  0
    4.3746    1.6615   19.5580 C   0  0  0  0  0  0  0  0  0  0  0  0
    4.5904    1.4700   18.0860 C   0  0  0  0  0  0  0  0  0  0  0  0
    5.2008    0.1979   17.5767 N   0  0  0  0  0  0  0  0  0  0  0  0
    5.5954   -0.8826   18.5394 C   0  0  0  0  0  0  0  0  0  0  0  0
    5.3796   -0.6911   20.0114 C   0  0  0  0  0  0  0  0  0  0  0  0
    5.7742   -1.7717   20.9741 C   0  0  0  0  0  0  0  0  0  0  0  0
    5.5584   -1.5802   22.4460 C   0  0  0  0  0  0  0  0  0  0  0  0
    4.9480   -0.3081   22.9554 C   0  0  0  0  0  0  0  0  0  0  0  0
    4.5534    0.7724   21.9927 C   0  0  0  0  0  0  0  0  0  0  0  0
    4.7692    0.5809   20.5206 C   0  0  0  0  0  0  0  0  0  0  0  0
  2  1  1  0  0  0
  2  3  1  0  0  0
  3  4  1  0  0  0
  4  5  1  0  0  0
  6  5  1  0  0  0
  6  7  1  0  0  0
  6  8  1  0  0  0
  8  9  1  0  0  0
  9 10  2  0  0  0
  9 11  1  0  0  0
 11 15  1  0  0  0
 15 16  2  0  0  0
 16 17  1  0  0  0
 17 18  2  0  0  0
 18 19  1  0  0  0
 19 20  2  0  0  0
 20 21  1  0  0  0
 21 22  2  0  0  0
 22 23  1  0  0  0
 23 24  2  0  0  0
 11 12  1  0  0  0
 12 13  2  0  0  0
  7  2  1  0  0  0
 24 15  1  0  0  0
 12  6  1  0  0  0
 24 19  1  0  0  0
  8 14  1  0  0  0
M  END
> <minimizedAffinity>
-6.76681

> <CNNscore>
0.4179221690

> <CNNaffinity>
4.8225450516

> <CNN_VS>
2.0154485703

> <CNNaffinity_variance>
0.0281910840

$$$$
