


 24 27  0  0  0  0  0  0  0  0999 V2000
   -8.0864   -0.0882  -26.5127 C   0  0  0  0  0  0  0  0  0  0  0  0
   -7.6600   -1.3965  -25.9157 C   0  0  0  0  0  0  0  0  0  0  0  0
   -7.7613   -2.6573  -26.7220 C   0  0  0  0  0  0  0  0  0  0  0  0
   -7.3349   -3.9656  -26.1250 O   0  0  0  0  0  0  0  0  0  0  0  0
   -6.8072   -4.0132  -24.7217 C   0  0  0  0  0  0  0  0  0  0  0  0
   -6.7059   -2.7525  -23.9154 C   0  0  0  0  0  0  0  0  0  0  0  0
   -7.1323   -1.4441  -24.5124 C   0  0  0  0  0  0  0  0  0  0  0  0
   -6.2439   -3.9804  -23.1884 N   0  0  0  0  0  0  0  0  0  0  0  0
   -5.8000   -3.5673  -21.8163 C   0  0  0  0  0  0  0  0  0  0  0  0
   -5.2628   -4.4776  -20.7521 O   0  0  0  0  0  0  0  0  0  0  0  0
   -5.9877   -2.0840  -21.6955 N   0  0  0  0  0  0  0  0  0  0  0  0
   -6.5476   -1.5804  -22.9927 C   0  0  0  0  0  0  0  0  0  0  0  0
   -6.8892   -0.1550  -23.3115 O   0  0  0  0  0  0  0  0  0  0  0  0
   -6.2338   -4.8967  -23.5484 H   0  0  0  0  0  0  0  0  0  0  0  0
   -5.6711   -1.2506  -20.4892 C   0  0  0  0  0  0  0  0  0  0  0  0
   -6.4173   -1.4730  -19.2071 C   0  0  0  0  0  0  0  0  0  0  0  0
   -6.1007   -0.6396  -18.0008 N   0  0  0  0  0  0  0  0  0  0  0  0
   -5.0379    0.4162  -18.0765 C   0  0  0  0  0  0  0  0  0  0  0  0
   -4.2917    0.6386  -19.3587 C   0  0  0  0  0  0  0  0  0  0  0  0
   -3.2289    1.6944  -19.4344 C   0  0  0  0  0  0  0  0  0  0  0  0
   -2.4827    1.9168  -20.7164 C   0  0  0  0  0  0  0  0  0  0  0  0
   -2.7993    1.0834  -21.9228 C   0  0  0  0  0  0  0  0  0  0  0  0
   -3.8621    0.0276  -21.8471 C   0  0  0  0  0  0  0  0  0  0  0  0
   -4.6084   -0.1948  -20.5649 C   0  0  0  0  0  0  0  0  0  0  0  0
  2  1  1  0  0  0
  2  3  1  0  0  0
  3  4  1  0  0  0
  4  5  1  0  0  0
  6  5  1  0  0  0
  6  7  1  0  0  0
  6  8  1  0  0  0
  8  9  1  0  0  0
  9 10  2  0  0  0
  9 11  1  0  0  0
 11 15  1  0  0  0
 15 16  2  0  0  0
 16 17  1  0  0  0
 17 18  2  0  0  0
 18 19  1  0  0  0
 19 20  2  0  0  0
 20 21  1  0  0  0
 21 22  2  0  0  0
 22 23  1  0  0  0
 23 24  2  0  0  0
 11 12  1  0  0  0
 12 13  2  0  0  0
  7  2  1  0  0  0
 24 15  1  0  0  0
 12  6  1  0  0  0
 24 19  1  0  0  0
  8 14  1  0  0  0
M  END
> <minimizedAffinity>
-6.57303

> <CNNscore>
0.8022189736

> <CNNaffinity>
5.2966690063

> <CNN_VS>
4.2490882874

> <CNNaffinity_variance>
0.1390081346

$$$$



 24 27  0  0  0  0  0  0  0  0999 V2000
   -5.4000   -7.1432  -23.1491 C   0  0  0  0  0  0  0  0  0  0  0  0
   -6.4857   -6.1462  -23.4274 C   0  0  0  0  0  0  0  0  0  0  0  0
   -7.5384   -6.4501  -24.4518 C   0  0  0  0  0  0  0  0  0  0  0  0
   -8.6240   -5.4531  -24.7301 O   0  0  0  0  0  0  0  0  0  0  0  0
   -8.6569   -4.1523  -23.9840 C   0  0  0  0  0  0  0  0  0  0  0  0
   -7.6042   -3.8484  -22.9596 C   0  0  0  0  0  0  0  0  0  0  0  0
   -6.5186   -4.8454  -22.6813 C   0  0  0  0  0  0  0  0  0  0  0  0
   -8.6224   -2.7601  -23.1295 N   0  0  0  0  0  0  0  0  0  0  0  0
   -8.2722   -1.6465  -22.1874 C   0  0  0  0  0  0  0  0  0  0  0  0
   -9.0244   -0.3589  -22.0258 O   0  0  0  0  0  0  0  0  0  0  0  0
   -7.0375   -2.0467  -21.4352 N   0  0  0  0  0  0  0  0  0  0  0  0
   -6.6247   -3.4075  -21.9125 C   0  0  0  0  0  0  0  0  0  0  0  0
   -5.4405   -4.1901  -21.4278 O   0  0  0  0  0  0  0  0  0  0  0  0
   -9.3863   -2.7741  -23.7503 H   0  0  0  0  0  0  0  0  0  0  0  0
   -6.3385   -1.2296  -20.3896 C   0  0  0  0  0  0  0  0  0  0  0  0
   -6.8314   -1.2441  -18.9729 C   0  0  0  0  0  0  0  0  0  0  0  0
   -6.1323   -0.4269  -17.9272 N   0  0  0  0  0  0  0  0  0  0  0  0
   -4.9404    0.4048  -18.2981 C   0  0  0  0  0  0  0  0  0  0  0  0
   -4.4474    0.4193  -19.7148 C   0  0  0  0  0  0  0  0  0  0  0  0
   -3.2555    1.2510  -20.0857 C   0  0  0  0  0  0  0  0  0  0  0  0
   -2.7626    1.2655  -21.5023 C   0  0  0  0  0  0  0  0  0  0  0  0
   -3.4617    0.4483  -22.5480 C   0  0  0  0  0  0  0  0  0  0  0  0
   -4.6536   -0.3834  -22.1771 C   0  0  0  0  0  0  0  0  0  0  0  0
   -5.1466   -0.3979  -20.7604 C   0  0  0  0  0  0  0  0  0  0  0  0
  2  1  1  0  0  0
  2  3  1  0  0  0
  3  4  1  0  0  0
  4  5  1  0  0  0
  6  5  1  0  0  0
  6  7  1  0  0  0
  6  8  1  0  0  0
  8  9  1  0  0  0
  9 10  2  0  0  0
  9 11  1  0  0  0
 11 15  1  0  0  0
 15 16  2  0  0  0
 16 17  1  0  0  0
 17 18  2  0  0  0
 18 19  1  0  0  0
 19 20  2  0  0  0
 20 21  1  0  0  0
 21 22  2  0  0  0
 22 23  1  0  0  0
 23 24  2  0  0  0
 11 12  1  0  0  0
 12 13  2  0  0  0
  7  2  1  0  0  0
 24 15  1  0  0  0
 12  6  1  0  0  0
 24 19  1  0  0  0
  8 14  1  0  0  0
M  END
> <minimizedAffinity>
-7.70415

> <CNNscore>
0.7212785482

> <CNNaffinity>
5.3851804733

> <CNN_VS>
3.8842151165

> <CNNaffinity_variance>
0.2565953732

$$$$



 24 27  0  0  0  0  0  0  0  0999 V2000
  -11.8531   -0.3034  -23.5747 C   0  0  0  0  0  0  0  0  0  0  0  0
  -10.8955   -1.4577  -23.5976 C   0  0  0  0  0  0  0  0  0  0  0  0
  -11.1731   -2.6452  -24.4709 C   0  0  0  0  0  0  0  0  0  0  0  0
  -10.2155   -3.7995  -24.4939 O   0  0  0  0  0  0  0  0  0  0  0  0
   -8.9804   -3.7664  -23.6434 C   0  0  0  0  0  0  0  0  0  0  0  0
   -8.7028   -2.5789  -22.7701 C   0  0  0  0  0  0  0  0  0  0  0  0
   -9.6604   -1.4246  -22.7471 C   0  0  0  0  0  0  0  0  0  0  0  0
   -7.6592   -3.6533  -22.6888 N   0  0  0  0  0  0  0  0  0  0  0  0
   -6.6057   -3.2039  -21.7200 C   0  0  0  0  0  0  0  0  0  0  0  0
   -5.3757   -3.9718  -21.3361 O   0  0  0  0  0  0  0  0  0  0  0  0
   -6.9984   -1.8518  -21.2025 N   0  0  0  0  0  0  0  0  0  0  0  0
   -8.2944   -1.4656  -21.8515 C   0  0  0  0  0  0  0  0  0  0  0  0
   -9.0495   -0.1900  -21.6222 O   0  0  0  0  0  0  0  0  0  0  0  0
   -7.6646   -4.5040  -23.1843 H   0  0  0  0  0  0  0  0  0  0  0  0
   -6.2299   -1.0303  -20.2104 C   0  0  0  0  0  0  0  0  0  0  0  0
   -6.6485   -1.0088  -18.7702 C   0  0  0  0  0  0  0  0  0  0  0  0
   -5.8800   -0.1872  -17.7779 N   0  0  0  0  0  0  0  0  0  0  0  0
   -4.6929    0.6128  -18.2260 C   0  0  0  0  0  0  0  0  0  0  0  0
   -4.2743    0.5913  -19.6663 C   0  0  0  0  0  0  0  0  0  0  0  0
   -3.0872    1.3914  -20.1143 C   0  0  0  0  0  0  0  0  0  0  0  0
   -2.6686    1.3698  -21.5545 C   0  0  0  0  0  0  0  0  0  0  0  0
   -3.4371    0.5483  -22.5467 C   0  0  0  0  0  0  0  0  0  0  0  0
   -4.6242   -0.2518  -22.0987 C   0  0  0  0  0  0  0  0  0  0  0  0
   -5.0428   -0.2303  -20.6584 C   0  0  0  0  0  0  0  0  0  0  0  0
  2  1  1  0  0  0
  2  3  1  0  0  0
  3  4  1  0  0  0
  4  5  1  0  0  0
  6  5  1  0  0  0
  6  7  1  0  0  0
  6  8  1  0  0  0
  8  9  1  0  0  0
  9 10  2  0  0  0
  9 11  1  0  0  0
 11 15  1  0  0  0
 15 16  2  0  0  0
 16 17  1  0  0  0
 17 18  2  0  0  0
 18 19  1  0  0  0
 19 20  2  0  0  0
 20 21  1  0  0  0
 21 22  2  0  0  0
 22 23  1  0  0  0
 23 24  2  0  0  0
 11 12  1  0  0  0
 12 13  2  0  0  0
  7  2  1  0  0  0
 24 15  1  0  0  0
 12  6  1  0  0  0
 24 19  1  0  0  0
  8 14  1  0  0  0
M  END
> <minimizedAffinity>
-7.54258

> <CNNscore>
0.7067248225

> <CNNaffinity>
5.2564110756

> <CNN_VS>
3.7148361206

> <CNNaffinity_variance>
0.1330998093

$$$$



 24 27  0  0  0  0  0  0  0  0999 V2000
   -8.8059   -6.7639  -26.7197 C   0  0  0  0  0  0  0  0  0  0  0  0
   -8.1495   -6.0276  -25.5897 C   0  0  0  0  0  0  0  0  0  0  0  0
   -6.7507   -6.3790  -25.1776 C   0  0  0  0  0  0  0  0  0  0  0  0
   -6.0944   -5.6427  -24.0476 O   0  0  0  0  0  0  0  0  0  0  0  0
   -6.8368   -4.5549  -23.3296 C   0  0  0  0  0  0  0  0  0  0  0  0
   -8.2356   -4.2035  -23.7417 C   0  0  0  0  0  0  0  0  0  0  0  0
   -8.8919   -4.9398  -24.8717 C   0  0  0  0  0  0  0  0  0  0  0  0
   -7.7121   -3.3843  -22.5994 N   0  0  0  0  0  0  0  0  0  0  0  0
   -8.7849   -2.4184  -22.1916 C   0  0  0  0  0  0  0  0  0  0  0  0
   -8.6881   -1.4078  -21.0874 O   0  0  0  0  0  0  0  0  0  0  0  0
   -9.9715   -2.6407  -23.0820 N   0  0  0  0  0  0  0  0  0  0  0  0
   -9.6320   -3.7439  -24.0400 C   0  0  0  0  0  0  0  0  0  0  0  0
  -10.5310   -4.2914  -25.1086 O   0  0  0  0  0  0  0  0  0  0  0  0
   -6.8208   -3.4662  -22.1892 H   0  0  0  0  0  0  0  0  0  0  0  0
  -11.2695   -1.8913  -23.0245 C   0  0  0  0  0  0  0  0  0  0  0  0
  -12.5259   -2.5982  -22.6102 C   0  0  0  0  0  0  0  0  0  0  0  0
  -13.8240   -1.8488  -22.5527 N   0  0  0  0  0  0  0  0  0  0  0  0
  -13.8658   -0.3925  -22.9095 C   0  0  0  0  0  0  0  0  0  0  0  0
  -12.6093    0.3145  -23.3238 C   0  0  0  0  0  0  0  0  0  0  0  0
  -12.6510    1.7709  -23.6806 C   0  0  0  0  0  0  0  0  0  0  0  0
  -11.3946    2.4778  -24.0949 C   0  0  0  0  0  0  0  0  0  0  0  0
  -10.0965    1.7284  -24.1524 C   0  0  0  0  0  0  0  0  0  0  0  0
  -10.0548    0.2721  -23.7956 C   0  0  0  0  0  0  0  0  0  0  0  0
  -11.3112   -0.4350  -23.3813 C   0  0  0  0  0  0  0  0  0  0  0  0
  2  1  1  0  0  0
  2  3  1  0  0  0
  3  4  1  0  0  0
  4  5  1  0  0  0
  6  5  1  0  0  0
  6  7  1  0  0  0
  6  8  1  0  0  0
  8  9  1  0  0  0
  9 10  2  0  0  0
  9 11  1  0  0  0
 11 15  1  0  0  0
 15 16  2  0  0  0
 16 17  1  0  0  0
 17 18  2  0  0  0
 18 19  1  0  0  0
 19 20  2  0  0  0
 20 21  1  0  0  0
 21 22  2  0  0  0
 22 23  1  0  0  0
 23 24  2  0  0  0
 11 12  1  0  0  0
 12 13  2  0  0  0
  7  2  1  0  0  0
 24 15  1  0  0  0
 12  6  1  0  0  0
 24 19  1  0  0  0
  8 14  1  0  0  0
M  END
> <minimizedAffinity>
-6.99401

> <CNNscore>
0.6452042460

> <CNNaffinity>
5.3679189682

> <CNN_VS>
3.4634041786

> <CNNaffinity_variance>
0.0550426021

$$$$



 24 27  0  0  0  0  0  0  0  0999 V2000
  -10.2410   -6.0673  -27.2132 C   0  0  0  0  0  0  0  0  0  0  0  0
   -9.4281   -5.9090  -25.9625 C   0  0  0  0  0  0  0  0  0  0  0  0
   -8.8036   -7.1102  -25.3169 C   0  0  0  0  0  0  0  0  0  0  0  0
   -7.9907   -6.9519  -24.0662 O   0  0  0  0  0  0  0  0  0  0  0  0
   -7.8024   -5.5923  -23.4612 C   0  0  0  0  0  0  0  0  0  0  0  0
   -8.4270   -4.3911  -24.1068 C   0  0  0  0  0  0  0  0  0  0  0  0
   -9.2398   -4.5494  -25.3575 C   0  0  0  0  0  0  0  0  0  0  0  0
   -7.6449   -4.0790  -22.8654 N   0  0  0  0  0  0  0  0  0  0  0  0
   -7.7223   -2.5998  -22.6283 C   0  0  0  0  0  0  0  0  0  0  0  0
   -7.0822   -1.8538  -21.4954 O   0  0  0  0  0  0  0  0  0  0  0  0
   -8.5522   -1.9977  -23.7232 N   0  0  0  0  0  0  0  0  0  0  0  0
   -8.9877   -3.1047  -24.6370 C   0  0  0  0  0  0  0  0  0  0  0  0
   -9.8352   -2.9523  -25.8652 O   0  0  0  0  0  0  0  0  0  0  0  0
   -7.1651   -4.7307  -22.3047 H   0  0  0  0  0  0  0  0  0  0  0  0
   -8.8877   -0.5439  -23.8773 C   0  0  0  0  0  0  0  0  0  0  0  0
   -7.8037    0.4481  -24.1787 C   0  0  0  0  0  0  0  0  0  0  0  0
   -8.1392    1.9019  -24.3328 N   0  0  0  0  0  0  0  0  0  0  0  0
   -9.5587    2.3638  -24.1855 C   0  0  0  0  0  0  0  0  0  0  0  0
  -10.6428    1.3718  -23.8841 C   0  0  0  0  0  0  0  0  0  0  0  0
  -12.0623    1.8336  -23.7367 C   0  0  0  0  0  0  0  0  0  0  0  0
  -13.1463    0.8416  -23.4353 C   0  0  0  0  0  0  0  0  0  0  0  0
  -12.8108   -0.6123  -23.2813 C   0  0  0  0  0  0  0  0  0  0  0  0
  -11.3913   -1.0741  -23.4286 C   0  0  0  0  0  0  0  0  0  0  0  0
  -10.3072   -0.0821  -23.7300 C   0  0  0  0  0  0  0  0  0  0  0  0
  2  1  1  0  0  0
  2  3  1  0  0  0
  3  4  1  0  0  0
  4  5  1  0  0  0
  6  5  1  0  0  0
  6  7  1  0  0  0
  6  8  1  0  0  0
  8  9  1  0  0  0
  9 10  2  0  0  0
  9 11  1  0  0  0
 11 15  1  0  0  0
 15 16  2  0  0  0
 16 17  1  0  0  0
 17 18  2  0  0  0
 18 19  1  0  0  0
 19 20  2  0  0  0
 20 21  1  0  0  0
 21 22  2  0  0  0
 22 23  1  0  0  0
 23 24  2  0  0  0
 11 12  1  0  0  0
 12 13  2  0  0  0
  7  2  1  0  0  0
 24 15  1  0  0  0
 12  6  1  0  0  0
 24 19  1  0  0  0
  8 14  1  0  0  0
M  END
> <minimizedAffinity>
-6.85950

> <CNNscore>
0.5758428574

> <CNNaffinity>
5.2993230820

> <CNN_VS>
3.0515773296

> <CNNaffinity_variance>
0.0969293863

$$$$



 24 27  0  0  0  0  0  0  0  0999 V2000
   -9.5230   -6.1168  -27.6035 C   0  0  0  0  0  0  0  0  0  0  0  0
   -8.8885   -5.8031  -26.2810 C   0  0  0  0  0  0  0  0  0  0  0  0
   -7.7963   -6.6812  -25.7461 C   0  0  0  0  0  0  0  0  0  0  0  0
   -7.1618   -6.3675  -24.4236 O   0  0  0  0  0  0  0  0  0  0  0  0
   -7.6194   -5.1758  -23.6360 C   0  0  0  0  0  0  0  0  0  0  0  0
   -8.7116   -4.2977  -24.1709 C   0  0  0  0  0  0  0  0  0  0  0  0
   -9.3461   -4.6114  -25.4934 C   0  0  0  0  0  0  0  0  0  0  0  0
   -8.1741   -3.8608  -22.8404 N   0  0  0  0  0  0  0  0  0  0  0  0
   -8.9174   -2.6267  -22.4227 C   0  0  0  0  0  0  0  0  0  0  0  0
   -8.7017   -1.8540  -21.1552 O   0  0  0  0  0  0  0  0  0  0  0  0
   -9.9144   -2.3008  -23.4951 N   0  0  0  0  0  0  0  0  0  0  0  0
   -9.7872   -3.3336  -24.5755 C   0  0  0  0  0  0  0  0  0  0  0  0
  -10.5938   -3.3920  -25.8388 O   0  0  0  0  0  0  0  0  0  0  0  0
   -7.4590   -4.3059  -22.3307 H   0  0  0  0  0  0  0  0  0  0  0  0
  -10.8706   -1.1452  -23.4883 C   0  0  0  0  0  0  0  0  0  0  0  0
  -12.3264   -1.3780  -23.2120 C   0  0  0  0  0  0  0  0  0  0  0  0
  -13.2826   -0.2223  -23.2052 N   0  0  0  0  0  0  0  0  0  0  0  0
  -12.7831    1.1661  -23.4747 C   0  0  0  0  0  0  0  0  0  0  0  0
  -11.3271    1.3990  -23.7510 C   0  0  0  0  0  0  0  0  0  0  0  0
  -10.8276    2.7874  -24.0204 C   0  0  0  0  0  0  0  0  0  0  0  0
   -9.3717    3.0202  -24.2967 C   0  0  0  0  0  0  0  0  0  0  0  0
   -8.4155    1.8645  -24.3035 C   0  0  0  0  0  0  0  0  0  0  0  0
   -8.9151    0.4760  -24.0341 C   0  0  0  0  0  0  0  0  0  0  0  0
  -10.3710    0.2432  -23.7578 C   0  0  0  0  0  0  0  0  0  0  0  0
  2  1  1  0  0  0
  2  3  1  0  0  0
  3  4  1  0  0  0
  4  5  1  0  0  0
  6  5  1  0  0  0
  6  7  1  0  0  0
  6  8  1  0  0  0
  8  9  1  0  0  0
  9 10  2  0  0  0
  9 11  1  0  0  0
 11 15  1  0  0  0
 15 16  2  0  0  0
 16 17  1  0  0  0
 17 18  2  0  0  0
 18 19  1  0  0  0
 19 20  2  0  0  0
 20 21  1  0  0  0
 21 22  2  0  0  0
 22 23  1  0  0  0
 23 24  2  0  0  0
 11 12  1  0  0  0
 12 13  2  0  0  0
  7  2  1  0  0  0
 24 15  1  0  0  0
 12  6  1  0  0  0
 24 19  1  0  0  0
  8 14  1  0  0  0
M  END
> <minimizedAffinity>
-6.85682

> <CNNscore>
0.5718724132

> <CNNaffinity>
5.1964979172

> <CNN_VS>
2.9717338085

> <CNNaffinity_variance>
0.1226589829

$$$$



 24 27  0  0  0  0  0  0  0  0999 V2000
   -9.0728   -3.9390  -27.0706 C   0  0  0  0  0  0  0  0  0  0  0  0
   -8.5671   -4.6201  -25.8335 C   0  0  0  0  0  0  0  0  0  0  0  0
   -8.9300   -6.0501  -25.5631 C   0  0  0  0  0  0  0  0  0  0  0  0
   -8.4243   -6.7312  -24.3260 O   0  0  0  0  0  0  0  0  0  0  0  0
   -7.5557   -5.9822  -23.3594 C   0  0  0  0  0  0  0  0  0  0  0  0
   -7.1928   -4.5521  -23.6298 C   0  0  0  0  0  0  0  0  0  0  0  0
   -7.6985   -3.8711  -24.8668 C   0  0  0  0  0  0  0  0  0  0  0  0
   -6.6156   -5.0980  -22.3574 N   0  0  0  0  0  0  0  0  0  0  0  0
   -5.8149   -4.0089  -21.7069 C   0  0  0  0  0  0  0  0  0  0  0  0
   -5.0637   -4.1194  -20.4133 O   0  0  0  0  0  0  0  0  0  0  0  0
   -5.8974   -2.7900  -22.5773 N   0  0  0  0  0  0  0  0  0  0  0  0
   -6.7489   -3.1257  -23.7656 C   0  0  0  0  0  0  0  0  0  0  0  0
   -7.0958   -2.1980  -24.8921 O   0  0  0  0  0  0  0  0  0  0  0  0
   -6.7402   -6.0107  -22.0102 H   0  0  0  0  0  0  0  0  0  0  0  0
   -5.2432   -1.4676  -22.3069 C   0  0  0  0  0  0  0  0  0  0  0  0
   -4.6015   -0.7050  -23.4279 C   0  0  0  0  0  0  0  0  0  0  0  0
   -3.9473    0.6174  -23.1574 N   0  0  0  0  0  0  0  0  0  0  0  0
   -3.9347    1.1773  -21.7659 C   0  0  0  0  0  0  0  0  0  0  0  0
   -4.5764    0.4147  -20.6447 C   0  0  0  0  0  0  0  0  0  0  0  0
   -4.5638    0.9745  -19.2532 C   0  0  0  0  0  0  0  0  0  0  0  0
   -5.2054    0.2120  -18.1322 C   0  0  0  0  0  0  0  0  0  0  0  0
   -5.8596   -1.1105  -18.4027 C   0  0  0  0  0  0  0  0  0  0  0  0
   -5.8723   -1.6703  -19.7942 C   0  0  0  0  0  0  0  0  0  0  0  0
   -5.2306   -0.9078  -20.9153 C   0  0  0  0  0  0  0  0  0  0  0  0
  2  1  1  0  0  0
  2  3  1  0  0  0
  3  4  1  0  0  0
  4  5  1  0  0  0
  6  5  1  0  0  0
  6  7  1  0  0  0
  6  8  1  0  0  0
  8  9  1  0  0  0
  9 10  2  0  0  0
  9 11  1  0  0  0
 11 15  1  0  0  0
 15 16  2  0  0  0
 16 17  1  0  0  0
 17 18  2  0  0  0
 18 19  1  0  0  0
 19 20  2  0  0  0
 20 21  1  0  0  0
 21 22  2  0  0  0
 22 23  1  0  0  0
 23 24  2  0  0  0
 11 12  1  0  0  0
 12 13  2  0  0  0
  7  2  1  0  0  0
 24 15  1  0  0  0
 12  6  1  0  0  0
 24 19  1  0  0  0
  8 14  1  0  0  0
M  END
> <minimizedAffinity>
-6.27357

> <CNNscore>
0.5597010255

> <CNNaffinity>
5.0974845886

> <CNN_VS>
2.8530673981

> <CNNaffinity_variance>
0.1204445735

$$$$



 24 27  0  0  0  0  0  0  0  0999 V2000
    0.8642    3.9660  -19.5907 C   0  0  0  0  0  0  0  0  0  0  0  0
   -0.3588    4.2973  -20.3936 C   0  0  0  0  0  0  0  0  0  0  0  0
   -0.3916    5.5407  -21.2318 C   0  0  0  0  0  0  0  0  0  0  0  0
   -1.6147    5.8720  -22.0346 O   0  0  0  0  0  0  0  0  0  0  0  0
   -2.8048    4.9598  -21.9992 C   0  0  0  0  0  0  0  0  0  0  0  0
   -2.7720    3.7163  -21.1610 C   0  0  0  0  0  0  0  0  0  0  0  0
   -1.5490    3.3850  -20.3582 C   0  0  0  0  0  0  0  0  0  0  0  0
   -4.0581    3.9156  -21.9067 N   0  0  0  0  0  0  0  0  0  0  0  0
   -4.9661    2.7670  -21.5802 C   0  0  0  0  0  0  0  0  0  0  0  0
   -6.3551    2.5634  -22.1085 O   0  0  0  0  0  0  0  0  0  0  0  0
   -4.2410    1.8578  -20.6328 N   0  0  0  0  0  0  0  0  0  0  0  0
   -2.8850    2.4445  -20.3737 C   0  0  0  0  0  0  0  0  0  0  0  0
   -1.8276    1.8617  -19.4836 O   0  0  0  0  0  0  0  0  0  0  0  0
   -4.2693    4.6682  -22.5053 H   0  0  0  0  0  0  0  0  0  0  0  0
   -4.7776    0.5854  -20.0472 C   0  0  0  0  0  0  0  0  0  0  0  0
   -4.8623    0.4220  -18.5586 C   0  0  0  0  0  0  0  0  0  0  0  0
   -5.3990   -0.8504  -17.9731 N   0  0  0  0  0  0  0  0  0  0  0  0
   -5.8510   -1.9595  -18.8762 C   0  0  0  0  0  0  0  0  0  0  0  0
   -5.7664   -1.7961  -20.3649 C   0  0  0  0  0  0  0  0  0  0  0  0
   -6.2184   -2.9052  -21.2680 C   0  0  0  0  0  0  0  0  0  0  0  0
   -6.1337   -2.7418  -22.7567 C   0  0  0  0  0  0  0  0  0  0  0  0
   -5.5970   -1.4694  -23.3422 C   0  0  0  0  0  0  0  0  0  0  0  0
   -5.1450   -0.3603  -22.4391 C   0  0  0  0  0  0  0  0  0  0  0  0
   -5.2297   -0.5237  -20.9504 C   0  0  0  0  0  0  0  0  0  0  0  0
  2  1  1  0  0  0
  2  3  1  0  0  0
  3  4  1  0  0  0
  4  5  1  0  0  0
  6  5  1  0  0  0
  6  7  1  0  0  0
  6  8  1  0  0  0
  8  9  1  0  0  0
  9 10  2  0  0  0
  9 11  1  0  0  0
 11 15  1  0  0  0
 15 16  2  0  0  0
 16 17  1  0  0  0
 17 18  2  0  0  0
 18 19  1  0  0  0
 19 20  2  0  0  0
 20 21  1  0  0  0
 21 22  2  0  0  0
 22 23  1  0  0  0
 23 24  2  0  0  0
 11 12  1  0  0  0
 12 13  2  0  0  0
  7  2  1  0  0  0
 24 15  1  0  0  0
 12  6  1  0  0  0
 24 19  1  0  0  0
  8 14  1  0  0  0
M  END
> <minimizedAffinity>
-6.79059

> <CNNscore>
0.5146111250

> <CNNaffinity>
4.6849303246

> <CNN_VS>
2.4109172821

> <CNNaffinity_variance>
0.0944623351

$$$$



 24 27  0  0  0  0  0  0  0  0999 V2000
   -7.1542   -6.3785  -24.1191 C   0  0  0  0  0  0  0  0  0  0  0  0
   -8.0115   -5.1486  -24.1698 C   0  0  0  0  0  0  0  0  0  0  0  0
   -9.1481   -5.0663  -25.1450 C   0  0  0  0  0  0  0  0  0  0  0  0
  -10.0053   -3.8365  -25.1957 O   0  0  0  0  0  0  0  0  0  0  0  0
   -9.7259   -2.6889  -24.2712 C   0  0  0  0  0  0  0  0  0  0  0  0
   -8.5893   -2.7712  -23.2959 C   0  0  0  0  0  0  0  0  0  0  0  0
   -7.7321   -4.0010  -23.2452 C   0  0  0  0  0  0  0  0  0  0  0  0
   -9.3564   -1.4837  -23.2316 N   0  0  0  0  0  0  0  0  0  0  0  0
   -8.7349   -0.6263  -22.1692 C   0  0  0  0  0  0  0  0  0  0  0  0
   -9.1854    0.7474  -21.7693 O   0  0  0  0  0  0  0  0  0  0  0  0
   -7.5836   -1.3839  -21.5768 N   0  0  0  0  0  0  0  0  0  0  0  0
   -7.4937   -2.7094  -22.2731 C   0  0  0  0  0  0  0  0  0  0  0  0
   -6.4852   -3.7846  -21.9955 O   0  0  0  0  0  0  0  0  0  0  0  0
  -10.1316   -1.2436  -23.7889 H   0  0  0  0  0  0  0  0  0  0  0  0
   -6.6810   -0.9008  -20.4807 C   0  0  0  0  0  0  0  0  0  0  0  0
   -6.8467   -1.4272  -19.0859 C   0  0  0  0  0  0  0  0  0  0  0  0
   -5.9440   -0.9440  -17.9897 N   0  0  0  0  0  0  0  0  0  0  0  0
   -4.8755    0.0655  -18.2882 C   0  0  0  0  0  0  0  0  0  0  0  0
   -4.7097    0.5919  -19.6831 C   0  0  0  0  0  0  0  0  0  0  0  0
   -3.6412    1.6015  -19.9816 C   0  0  0  0  0  0  0  0  0  0  0  0
   -3.4755    2.1279  -21.3764 C   0  0  0  0  0  0  0  0  0  0  0  0
   -4.3782    1.6447  -22.4726 C   0  0  0  0  0  0  0  0  0  0  0  0
   -5.4467    0.6352  -22.1741 C   0  0  0  0  0  0  0  0  0  0  0  0
   -5.6125    0.1087  -20.7792 C   0  0  0  0  0  0  0  0  0  0  0  0
  2  1  1  0  0  0
  2  3  1  0  0  0
  3  4  1  0  0  0
  4  5  1  0  0  0
  6  5  1  0  0  0
  6  7  1  0  0  0
  6  8  1  0  0  0
  8  9  1  0  0  0
  9 10  2  0  0  0
  9 11  1  0  0  0
 11 15  1  0  0  0
 15 16  2  0  0  0
 16 17  1  0  0  0
 17 18  2  0  0  0
 18 19  1  0  0  0
 19 20  2  0  0  0
 20 21  1  0  0  0
 21 22  2  0  0  0
 22 23  1  0  0  0
 23 24  2  0  0  0
 11 12  1  0  0  0
 12 13  2  0  0  0
  7  2  1  0  0  0
 24 15  1  0  0  0
 12  6  1  0  0  0
 24 19  1  0  0  0
  8 14  1  0  0  0
M  END
> <minimizedAffinity>
-7.54363

> <CNNscore>
0.5112223625

> <CNNaffinity>
5.1847448349

> <CNN_VS>
2.6505575180

> <CNNaffinity_variance>
0.1172100306

$$$$
