


 35 39  0  0  0  0  0  0  0  0999 V2000
  -11.4314    3.7225  -24.0429 N   0  0  0  0  0  0  0  0  0  0  0  0
  -10.0836    3.0681  -23.9720 C   0  0  0  0  0  0  0  0  0  0  0  0
   -9.9781    1.5942  -23.7139 C   0  0  0  0  0  0  0  0  0  0  0  0
   -9.7169    0.1384  -23.4642 C   0  0  0  0  0  0  0  0  0  0  0  0
  -10.3234   -0.8945  -23.2603 O   0  0  0  0  0  0  0  0  0  0  0  0
   -8.2322   -0.0749  -23.4763 N   0  0  0  0  0  0  0  0  0  0  0  0
   -7.5758    1.2491  -23.7335 C   0  0  0  0  0  0  0  0  0  0  0  0
   -8.6548    2.2807  -23.8803 C   0  0  0  0  0  0  0  0  0  0  0  0
   -7.5070    3.2240  -24.0865 C   0  0  0  0  0  0  0  0  0  0  0  0
   -9.4939    3.5095  -24.0703 C   0  0  0  0  0  0  0  0  0  0  0  0
  -11.2205    0.7748  -23.5265 C   0  0  0  0  0  0  0  0  0  0  0  0
  -11.1150   -0.6990  -23.2684 C   0  0  0  0  0  0  0  0  0  0  0  0
  -12.3574   -1.5184  -23.0810 C   0  0  0  0  0  0  0  0  0  0  0  0
  -12.2520   -2.9923  -22.8229 Cl  0  0  0  0  0  0  0  0  0  0  0  0
  -13.7052   -0.8639  -23.1519 C   0  0  0  0  0  0  0  0  0  0  0  0
  -13.8107    0.6099  -23.4100 C   0  0  0  0  0  0  0  0  0  0  0  0
  -12.5684    1.4292  -23.5973 C   0  0  0  0  0  0  0  0  0  0  0  0
  -12.6738    2.9031  -23.8555 C   0  0  0  0  0  0  0  0  0  0  0  0
  -14.0216    3.5576  -23.9263 O   0  0  0  0  0  0  0  0  0  0  0  0
   -7.5276   -1.3826  -23.2678 C   0  0  0  0  0  0  0  0  0  0  0  0
   -6.9290   -1.7073  -21.9313 C   0  0  0  0  0  0  0  0  0  0  0  0
   -6.2244   -3.0150  -21.7228 N   0  0  0  0  0  0  0  0  0  0  0  0
   -6.1184   -3.9980  -22.8508 C   0  0  0  0  0  0  0  0  0  0  0  0
   -6.7171   -3.6733  -24.1874 C   0  0  0  0  0  0  0  0  0  0  0  0
   -6.6111   -4.6564  -25.3154 C   0  0  0  0  0  0  0  0  0  0  0  0
   -7.2098   -4.3316  -26.6519 C   0  0  0  0  0  0  0  0  0  0  0  0
   -7.9143   -3.0239  -26.8604 C   0  0  0  0  0  0  0  0  0  0  0  0
   -8.0203   -2.0409  -25.7323 C   0  0  0  0  0  0  0  0  0  0  0  0
   -7.4217   -2.3656  -24.3958 C   0  0  0  0  0  0  0  0  0  0  0  0
  -11.5369    5.1964  -24.3010 C   0  0  0  0  0  0  0  0  0  0  0  0
  -13.9614    6.3599  -27.2196 C   0  0  0  0  0  0  0  0  0  0  0  0
  -13.4833    5.8642  -25.8870 N   0  0  0  0  0  0  0  0  0  0  0  0
  -12.0150    5.6921  -25.6336 C   0  0  0  0  0  0  0  0  0  0  0  0
  -11.0246    6.0156  -26.7128 O   0  0  0  0  0  0  0  0  0  0  0  0
  -14.1333    5.6519  -25.1787 H   0  0  0  0  0  0  0  0  0  0  0  0
 31 32  1  0  0  0
 32 33  1  0  0  0
 33 34  2  0  0  0
 33 30  1  0  0  0
 30  1  1  0  0  0
  1  2  1  0  0  0
  3  2  1  0  0  0
  3  4  1  0  0  0
  4  5  2  0  0  0
  4  6  1  0  0  0
  6 20  1  0  0  0
 20 21  2  0  0  0
 21 22  1  0  0  0
 22 23  2  0  0  0
 23 24  1  0  0  0
 24 25  2  0  0  0
 25 26  1  0  0  0
 26 27  2  0  0  0
 27 28  1  0  0  0
 28 29  2  0  0  0
  6  7  1  0  0  0
  7  8  1  0  0  0
  8  9  1  0  0  0
  8 10  1  0  0  0
  3 11  1  0  0  0
 11 12  2  0  0  0
 12 13  1  0  0  0
 13 14  1  0  0  0
 13 15  2  0  0  0
 15 16  1  0  0  0
 16 17  2  0  0  0
 17 18  1  0  0  0
 18 19  2  0  0  0
 18  1  1  0  0  0
  8  3  1  0  0  0
 17 11  1  0  0  0
 29 20  1  0  0  0
 29 24  1  0  0  0
 32 35  1  0  0  0
M  END
> <minimizedAffinity>
-7.48222

> <CNNscore>
0.4728683233

> <CNNaffinity>
6.5511827469

> <CNN_VS>
3.0978467464

> <CNNaffinity_variance>
0.2947390974

$$$$



 35 39  0  0  0  0  0  0  0  0999 V2000
   -9.1629    2.6740  -24.6158 N   0  0  0  0  0  0  0  0  0  0  0  0
   -8.2500    1.4877  -24.7133 C   0  0  0  0  0  0  0  0  0  0  0  0
   -8.7601    0.1189  -24.3727 C   0  0  0  0  0  0  0  0  0  0  0  0
   -9.1265   -1.3030  -24.0663 C   0  0  0  0  0  0  0  0  0  0  0  0
  -10.0799   -1.9598  -23.6975 O   0  0  0  0  0  0  0  0  0  0  0  0
   -7.9135   -2.1545  -24.2979 N   0  0  0  0  0  0  0  0  0  0  0  0
   -6.7974   -1.2588  -24.7475 C   0  0  0  0  0  0  0  0  0  0  0  0
   -7.3207    0.1462  -24.7937 C   0  0  0  0  0  0  0  0  0  0  0  0
   -5.9299    0.4820  -25.2441 C   0  0  0  0  0  0  0  0  0  0  0  0
   -7.5532    1.6215  -24.9341 C   0  0  0  0  0  0  0  0  0  0  0  0
  -10.1831   -0.0637  -23.9346 C   0  0  0  0  0  0  0  0  0  0  0  0
  -10.6932   -1.4325  -23.5940 C   0  0  0  0  0  0  0  0  0  0  0  0
  -12.1161   -1.6151  -23.1559 C   0  0  0  0  0  0  0  0  0  0  0  0
  -12.6263   -2.9840  -22.8152 Cl  0  0  0  0  0  0  0  0  0  0  0  0
  -13.0289   -0.4288  -23.0584 C   0  0  0  0  0  0  0  0  0  0  0  0
  -12.5188    0.9400  -23.3990 C   0  0  0  0  0  0  0  0  0  0  0  0
  -11.0959    1.1226  -23.8371 C   0  0  0  0  0  0  0  0  0  0  0  0
  -10.5858    2.4915  -24.1777 C   0  0  0  0  0  0  0  0  0  0  0  0
  -11.4986    3.6778  -24.0803 O   0  0  0  0  0  0  0  0  0  0  0  0
   -7.8310   -3.6407  -24.1125 C   0  0  0  0  0  0  0  0  0  0  0  0
   -7.2322   -4.2082  -22.8597 C   0  0  0  0  0  0  0  0  0  0  0  0
   -7.1498   -5.6944  -22.6743 N   0  0  0  0  0  0  0  0  0  0  0  0
   -7.6661   -6.6131  -23.7417 C   0  0  0  0  0  0  0  0  0  0  0  0
   -8.2650   -6.0456  -24.9944 C   0  0  0  0  0  0  0  0  0  0  0  0
   -8.7814   -6.9644  -26.0618 C   0  0  0  0  0  0  0  0  0  0  0  0
   -9.3802   -6.3969  -27.3145 C   0  0  0  0  0  0  0  0  0  0  0  0
   -9.4626   -4.9107  -27.5000 C   0  0  0  0  0  0  0  0  0  0  0  0
   -8.9462   -3.9920  -26.4326 C   0  0  0  0  0  0  0  0  0  0  0  0
   -8.3474   -4.5594  -25.1798 C   0  0  0  0  0  0  0  0  0  0  0  0
   -8.6527    4.0429  -24.9565 C   0  0  0  0  0  0  0  0  0  0  0  0
   -6.6777    5.9815  -22.1119 C   0  0  0  0  0  0  0  0  0  0  0  0
   -6.9910    5.0041  -23.2059 N   0  0  0  0  0  0  0  0  0  0  0  0
   -8.3395    5.0202  -23.8625 C   0  0  0  0  0  0  0  0  0  0  0  0
   -9.3748    6.0137  -23.4252 O   0  0  0  0  0  0  0  0  0  0  0  0
   -6.3114    4.3521  -23.4929 H   0  0  0  0  0  0  0  0  0  0  0  0
 31 32  1  0  0  0
 32 33  1  0  0  0
 33 34  2  0  0  0
 33 30  1  0  0  0
 30  1  1  0  0  0
  1  2  1  0  0  0
  3  2  1  0  0  0
  3  4  1  0  0  0
  4  5  2  0  0  0
  4  6  1  0  0  0
  6 20  1  0  0  0
 20 21  2  0  0  0
 21 22  1  0  0  0
 22 23  2  0  0  0
 23 24  1  0  0  0
 24 25  2  0  0  0
 25 26  1  0  0  0
 26 27  2  0  0  0
 27 28  1  0  0  0
 28 29  2  0  0  0
  6  7  1  0  0  0
  7  8  1  0  0  0
  8  9  1  0  0  0
  8 10  1  0  0  0
  3 11  1  0  0  0
 11 12  2  0  0  0
 12 13  1  0  0  0
 13 14  1  0  0  0
 13 15  2  0  0  0
 15 16  1  0  0  0
 16 17  2  0  0  0
 17 18  1  0  0  0
 18 19  2  0  0  0
 18  1  1  0  0  0
  8  3  1  0  0  0
 17 11  1  0  0  0
 29 20  1  0  0  0
 29 24  1  0  0  0
 32 35  1  0  0  0
M  END
> <minimizedAffinity>
-7.50473

> <CNNscore>
0.3997394741

> <CNNaffinity>
6.2635684013

> <CNN_VS>
2.5037956238

> <CNNaffinity_variance>
0.0928128138

$$$$



 35 39  0  0  0  0  0  0  0  0999 V2000
  -11.5585    3.9153  -24.0453 N   0  0  0  0  0  0  0  0  0  0  0  0
  -10.1775    3.3410  -23.9312 C   0  0  0  0  0  0  0  0  0  0  0  0
   -9.9940    1.8761  -23.6664 C   0  0  0  0  0  0  0  0  0  0  0  0
   -9.6558    0.4382  -23.4052 C   0  0  0  0  0  0  0  0  0  0  0  0
  -10.2069   -0.6284  -23.2178 O   0  0  0  0  0  0  0  0  0  0  0  0
   -8.1615    0.3123  -23.3708 N   0  0  0  0  0  0  0  0  0  0  0  0
   -7.5761    1.6723  -23.6107 C   0  0  0  0  0  0  0  0  0  0  0  0
   -8.7086    2.6388  -23.7934 C   0  0  0  0  0  0  0  0  0  0  0  0
   -7.6121    3.6476  -23.9661 C   0  0  0  0  0  0  0  0  0  0  0  0
   -9.6120    3.8162  -24.0122 C   0  0  0  0  0  0  0  0  0  0  0  0
  -11.1915    0.9853  -23.5156 C   0  0  0  0  0  0  0  0  0  0  0  0
  -11.0080   -0.4796  -23.2508 C   0  0  0  0  0  0  0  0  0  0  0  0
  -12.2055   -1.3703  -23.1001 C   0  0  0  0  0  0  0  0  0  0  0  0
  -12.0220   -2.8353  -22.8353 Cl  0  0  0  0  0  0  0  0  0  0  0  0
  -13.5864   -0.7960  -23.2142 C   0  0  0  0  0  0  0  0  0  0  0  0
  -13.7700    0.6690  -23.4790 C   0  0  0  0  0  0  0  0  0  0  0  0
  -12.5725    1.5596  -23.6298 C   0  0  0  0  0  0  0  0  0  0  0  0
  -12.7560    3.0247  -23.8946 C   0  0  0  0  0  0  0  0  0  0  0  0
  -14.1370    3.5990  -24.0087 O   0  0  0  0  0  0  0  0  0  0  0  0
   -7.3884   -0.9518  -23.1374 C   0  0  0  0  0  0  0  0  0  0  0  0
   -7.1621   -1.9120  -24.2674 C   0  0  0  0  0  0  0  0  0  0  0  0
   -6.3890   -3.1760  -24.0341 N   0  0  0  0  0  0  0  0  0  0  0  0
   -5.8422   -3.4799  -22.6708 C   0  0  0  0  0  0  0  0  0  0  0  0
   -6.0685   -2.5197  -21.5408 C   0  0  0  0  0  0  0  0  0  0  0  0
   -5.5217   -2.8236  -20.1774 C   0  0  0  0  0  0  0  0  0  0  0  0
   -5.7480   -1.8633  -19.0475 C   0  0  0  0  0  0  0  0  0  0  0  0
   -6.5212   -0.5993  -19.2808 C   0  0  0  0  0  0  0  0  0  0  0  0
   -7.0679   -0.2954  -20.6442 C   0  0  0  0  0  0  0  0  0  0  0  0
   -6.8416   -1.2556  -21.7741 C   0  0  0  0  0  0  0  0  0  0  0  0
  -11.7420    5.3804  -24.3101 C   0  0  0  0  0  0  0  0  0  0  0  0
  -13.9867    6.3982  -27.4207 C   0  0  0  0  0  0  0  0  0  0  0  0
  -13.5895    5.9273  -26.0530 N   0  0  0  0  0  0  0  0  0  0  0  0
  -12.1392    5.8513  -25.6778 C   0  0  0  0  0  0  0  0  0  0  0  0
  -11.0860    6.2462  -26.6703 O   0  0  0  0  0  0  0  0  0  0  0  0
  -14.2807    5.6681  -25.4016 H   0  0  0  0  0  0  0  0  0  0  0  0
 31 32  1  0  0  0
 32 33  1  0  0  0
 33 34  2  0  0  0
 33 30  1  0  0  0
 30  1  1  0  0  0
  1  2  1  0  0  0
  3  2  1  0  0  0
  3  4  1  0  0  0
  4  5  2  0  0  0
  4  6  1  0  0  0
  6 20  1  0  0  0
 20 21  2  0  0  0
 21 22  1  0  0  0
 22 23  2  0  0  0
 23 24  1  0  0  0
 24 25  2  0  0  0
 25 26  1  0  0  0
 26 27  2  0  0  0
 27 28  1  0  0  0
 28 29  2  0  0  0
  6  7  1  0  0  0
  7  8  1  0  0  0
  8  9  1  0  0  0
  8 10  1  0  0  0
  3 11  1  0  0  0
 11 12  2  0  0  0
 12 13  1  0  0  0
 13 14  1  0  0  0
 13 15  2  0  0  0
 15 16  1  0  0  0
 16 17  2  0  0  0
 17 18  1  0  0  0
 18 19  2  0  0  0
 18  1  1  0  0  0
  8  3  1  0  0  0
 17 11  1  0  0  0
 29 20  1  0  0  0
 29 24  1  0  0  0
 32 35  1  0  0  0
M  END
> <minimizedAffinity>
-8.36859

> <CNNscore>
0.3347807229

> <CNNaffinity>
6.2975792885

> <CNN_VS>
2.1083080769

> <CNNaffinity_variance>
0.0404281989

$$$$



 35 39  0  0  0  0  0  0  0  0999 V2000
   -7.8184   -2.9619  -22.4693 N   0  0  0  0  0  0  0  0  0  0  0  0
   -9.1211   -2.2886  -22.7850 C   0  0  0  0  0  0  0  0  0  0  0  0
   -9.2153   -0.7917  -22.7671 C   0  0  0  0  0  0  0  0  0  0  0  0
   -9.4606    0.6879  -22.7885 C   0  0  0  0  0  0  0  0  0  0  0  0
   -8.8673    1.7325  -22.6066 O   0  0  0  0  0  0  0  0  0  0  0  0
  -10.8984    0.9143  -23.1515 N   0  0  0  0  0  0  0  0  0  0  0  0
  -11.5416   -0.4255  -23.3545 C   0  0  0  0  0  0  0  0  0  0  0  0
  -10.5015   -1.4798  -23.1169 C   0  0  0  0  0  0  0  0  0  0  0  0
  -11.6189   -2.4299  -23.4308 C   0  0  0  0  0  0  0  0  0  0  0  0
   -9.6949   -2.7328  -22.9450 C   0  0  0  0  0  0  0  0  0  0  0  0
   -8.0069    0.0320  -22.4334 C   0  0  0  0  0  0  0  0  0  0  0  0
   -8.1012    1.5289  -22.4155 C   0  0  0  0  0  0  0  0  0  0  0  0
   -6.8927    2.3525  -22.0819 C   0  0  0  0  0  0  0  0  0  0  0  0
   -6.9870    3.8494  -22.0639 Cl  0  0  0  0  0  0  0  0  0  0  0  0
   -5.5901    1.6792  -21.7661 C   0  0  0  0  0  0  0  0  0  0  0  0
   -5.4958    0.1823  -21.7840 C   0  0  0  0  0  0  0  0  0  0  0  0
   -6.7042   -0.6413  -22.1177 C   0  0  0  0  0  0  0  0  0  0  0  0
   -6.6100   -2.1383  -22.1356 C   0  0  0  0  0  0  0  0  0  0  0  0
   -5.3073   -2.8116  -21.8199 O   0  0  0  0  0  0  0  0  0  0  0  0
  -11.5741    2.2465  -23.2876 C   0  0  0  0  0  0  0  0  0  0  0  0
  -12.6443    2.6474  -22.3160 C   0  0  0  0  0  0  0  0  0  0  0  0
  -13.3201    3.9796  -22.4521 N   0  0  0  0  0  0  0  0  0  0  0  0
  -12.9256    4.9109  -23.5598 C   0  0  0  0  0  0  0  0  0  0  0  0
  -11.8554    4.5100  -24.5314 C   0  0  0  0  0  0  0  0  0  0  0  0
  -11.4610    5.4415  -25.6391 C   0  0  0  0  0  0  0  0  0  0  0  0
  -10.3907    5.0405  -26.6106 C   0  0  0  0  0  0  0  0  0  0  0  0
   -9.7150    3.7083  -26.4745 C   0  0  0  0  0  0  0  0  0  0  0  0
  -10.1094    2.7769  -25.3668 C   0  0  0  0  0  0  0  0  0  0  0  0
  -11.1797    3.1778  -24.3953 C   0  0  0  0  0  0  0  0  0  0  0  0
   -7.7241   -4.4589  -22.4872 C   0  0  0  0  0  0  0  0  0  0  0  0
   -5.0663   -5.6265  -25.1933 C   0  0  0  0  0  0  0  0  0  0  0  0
   -5.6748   -4.9274  -24.0138 N   0  0  0  0  0  0  0  0  0  0  0  0
   -7.1157   -5.1580  -23.6667 C   0  0  0  0  0  0  0  0  0  0  0  0
   -7.9483   -6.0876  -24.4990 O   0  0  0  0  0  0  0  0  0  0  0  0
   -5.1284   -4.3173  -23.4676 H   0  0  0  0  0  0  0  0  0  0  0  0
 31 32  1  0  0  0
 32 33  1  0  0  0
 33 34  2  0  0  0
 33 30  1  0  0  0
 30  1  1  0  0  0
  1  2  1  0  0  0
  3  2  1  0  0  0
  3  4  1  0  0  0
  4  5  2  0  0  0
  4  6  1  0  0  0
  6 20  1  0  0  0
 20 21  2  0  0  0
 21 22  1  0  0  0
 22 23  2  0  0  0
 23 24  1  0  0  0
 24 25  2  0  0  0
 25 26  1  0  0  0
 26 27  2  0  0  0
 27 28  1  0  0  0
 28 29  2  0  0  0
  6  7  1  0  0  0
  7  8  1  0  0  0
  8  9  1  0  0  0
  8 10  1  0  0  0
  3 11  1  0  0  0
 11 12  2  0  0  0
 12 13  1  0  0  0
 13 14  1  0  0  0
 13 15  2  0  0  0
 15 16  1  0  0  0
 16 17  2  0  0  0
 17 18  1  0  0  0
 18 19  2  0  0  0
 18  1  1  0  0  0
  8  3  1  0  0  0
 17 11  1  0  0  0
 29 20  1  0  0  0
 29 24  1  0  0  0
 32 35  1  0  0  0
M  END
> <minimizedAffinity>
-7.60543

> <CNNscore>
0.3304992020

> <CNNaffinity>
6.2654657364

> <CNN_VS>
2.0707314014

> <CNNaffinity_variance>
0.1491736323

$$$$



 35 39  0  0  0  0  0  0  0  0999 V2000
   -7.1863   -4.7160  -22.6872 N   0  0  0  0  0  0  0  0  0  0  0  0
   -8.0903   -3.7843  -23.4386 C   0  0  0  0  0  0  0  0  0  0  0  0
   -7.9712   -2.3021  -23.2413 C   0  0  0  0  0  0  0  0  0  0  0  0
   -7.9691   -0.8051  -23.1476 C   0  0  0  0  0  0  0  0  0  0  0  0
   -7.3851    0.0906  -22.5705 O   0  0  0  0  0  0  0  0  0  0  0  0
   -9.0327   -0.2816  -24.0667 N   0  0  0  0  0  0  0  0  0  0  0  0
   -9.6922   -1.4551  -24.7284 C   0  0  0  0  0  0  0  0  0  0  0  0
   -9.0362   -2.7039  -24.2183 C   0  0  0  0  0  0  0  0  0  0  0  0
  -10.0064   -3.3970  -25.1284 C   0  0  0  0  0  0  0  0  0  0  0  0
   -8.5829   -4.0976  -23.8984 C   0  0  0  0  0  0  0  0  0  0  0  0
   -6.9480   -1.7516  -22.2925 C   0  0  0  0  0  0  0  0  0  0  0  0
   -6.8289   -0.2695  -22.0952 C   0  0  0  0  0  0  0  0  0  0  0  0
   -5.8057    0.2810  -21.1465 C   0  0  0  0  0  0  0  0  0  0  0  0
   -5.6866    1.7632  -20.9491 Cl  0  0  0  0  0  0  0  0  0  0  0  0
   -4.9017   -0.6508  -20.3951 C   0  0  0  0  0  0  0  0  0  0  0  0
   -5.0208   -2.1329  -20.5924 C   0  0  0  0  0  0  0  0  0  0  0  0
   -6.0440   -2.6833  -21.5411 C   0  0  0  0  0  0  0  0  0  0  0  0
   -6.1631   -4.1656  -21.7385 C   0  0  0  0  0  0  0  0  0  0  0  0
   -5.2590   -5.0973  -20.9871 O   0  0  0  0  0  0  0  0  0  0  0  0
   -9.3764    1.1620  -24.2856 C   0  0  0  0  0  0  0  0  0  0  0  0
   -8.3315    2.1141  -24.7875 C   0  0  0  0  0  0  0  0  0  0  0  0
   -8.6752    3.5576  -25.0064 N   0  0  0  0  0  0  0  0  0  0  0  0
  -10.0638    4.0492  -24.7235 C   0  0  0  0  0  0  0  0  0  0  0  0
  -11.1088    3.0971  -24.2217 C   0  0  0  0  0  0  0  0  0  0  0  0
  -12.4975    3.5887  -23.9388 C   0  0  0  0  0  0  0  0  0  0  0  0
  -13.5423    2.6366  -23.4370 C   0  0  0  0  0  0  0  0  0  0  0  0
  -13.1986    1.1930  -23.2181 C   0  0  0  0  0  0  0  0  0  0  0  0
  -11.8100    0.7015  -23.5009 C   0  0  0  0  0  0  0  0  0  0  0  0
  -10.7650    1.6535  -24.0028 C   0  0  0  0  0  0  0  0  0  0  0  0
   -7.3054   -6.1982  -22.8846 C   0  0  0  0  0  0  0  0  0  0  0  0
   -4.4425   -8.2660  -24.6950 C   0  0  0  0  0  0  0  0  0  0  0  0
   -5.2357   -7.5866  -23.6183 N   0  0  0  0  0  0  0  0  0  0  0  0
   -6.5122   -6.8776  -23.9613 C   0  0  0  0  0  0  0  0  0  0  0  0
   -6.9956   -6.8479  -25.3810 O   0  0  0  0  0  0  0  0  0  0  0  0
   -4.9184   -7.6061  -22.6866 H   0  0  0  0  0  0  0  0  0  0  0  0
 31 32  1  0  0  0
 32 33  1  0  0  0
 33 34  2  0  0  0
 33 30  1  0  0  0
 30  1  1  0  0  0
  1  2  1  0  0  0
  3  2  1  0  0  0
  3  4  1  0  0  0
  4  5  2  0  0  0
  4  6  1  0  0  0
  6 20  1  0  0  0
 20 21  2  0  0  0
 21 22  1  0  0  0
 22 23  2  0  0  0
 23 24  1  0  0  0
 24 25  2  0  0  0
 25 26  1  0  0  0
 26 27  2  0  0  0
 27 28  1  0  0  0
 28 29  2  0  0  0
  6  7  1  0  0  0
  7  8  1  0  0  0
  8  9  1  0  0  0
  8 10  1  0  0  0
  3 11  1  0  0  0
 11 12  2  0  0  0
 12 13  1  0  0  0
 13 14  1  0  0  0
 13 15  2  0  0  0
 15 16  1  0  0  0
 16 17  2  0  0  0
 17 18  1  0  0  0
 18 19  2  0  0  0
 18  1  1  0  0  0
  8  3  1  0  0  0
 17 11  1  0  0  0
 29 20  1  0  0  0
 29 24  1  0  0  0
 32 35  1  0  0  0
M  END
> <minimizedAffinity>
-7.92540

> <CNNscore>
0.2427523136

> <CNNaffinity>
6.1562519073

> <CNN_VS>
1.4944443703

> <CNNaffinity_variance>
0.0976617262

$$$$



 35 39  0  0  0  0  0  0  0  0999 V2000
   -6.2952   -0.0636  -22.4194 N   0  0  0  0  0  0  0  0  0  0  0  0
   -6.6223    1.1832  -23.1866 C   0  0  0  0  0  0  0  0  0  0  0  0
   -8.0168    1.4095  -23.6906 C   0  0  0  0  0  0  0  0  0  0  0  0
   -9.3590    1.7714  -24.2540 C   0  0  0  0  0  0  0  0  0  0  0  0
  -10.4892    1.3306  -24.3229 O   0  0  0  0  0  0  0  0  0  0  0  0
   -9.2309    3.0988  -24.9407 N   0  0  0  0  0  0  0  0  0  0  0  0
   -7.8095    3.5573  -24.8018 C   0  0  0  0  0  0  0  0  0  0  0  0
   -7.0591    2.5132  -24.0291 C   0  0  0  0  0  0  0  0  0  0  0  0
   -5.8936    3.4391  -24.2143 C   0  0  0  0  0  0  0  0  0  0  0  0
   -6.0651    1.6627  -23.2952 C   0  0  0  0  0  0  0  0  0  0  0  0
   -9.0843    0.3891  -23.4273 C   0  0  0  0  0  0  0  0  0  0  0  0
  -10.4789    0.6154  -23.9312 C   0  0  0  0  0  0  0  0  0  0  0  0
  -11.5463   -0.4050  -23.6680 C   0  0  0  0  0  0  0  0  0  0  0  0
  -12.9409   -0.1787  -24.1719 Cl  0  0  0  0  0  0  0  0  0  0  0  0
  -11.2192   -1.6517  -22.9007 C   0  0  0  0  0  0  0  0  0  0  0  0
   -9.8247   -1.8780  -22.3968 C   0  0  0  0  0  0  0  0  0  0  0  0
   -8.7572   -0.8577  -22.6600 C   0  0  0  0  0  0  0  0  0  0  0  0
   -7.3626   -1.0840  -22.1561 C   0  0  0  0  0  0  0  0  0  0  0  0
   -7.0355   -2.3307  -21.3888 O   0  0  0  0  0  0  0  0  0  0  0  0
  -10.3311    3.8380  -25.6431 C   0  0  0  0  0  0  0  0  0  0  0  0
  -10.3058    3.9788  -27.1363 C   0  0  0  0  0  0  0  0  0  0  0  0
  -11.4059    4.7179  -27.8387 N   0  0  0  0  0  0  0  0  0  0  0  0
  -12.5314    5.3162  -27.0479 C   0  0  0  0  0  0  0  0  0  0  0  0
  -12.5567    5.1754  -25.5547 C   0  0  0  0  0  0  0  0  0  0  0  0
  -13.6822    5.7737  -24.7639 C   0  0  0  0  0  0  0  0  0  0  0  0
  -13.7074    5.6329  -23.2707 C   0  0  0  0  0  0  0  0  0  0  0  0
  -12.6072    4.8937  -22.5683 C   0  0  0  0  0  0  0  0  0  0  0  0
  -11.4818    4.2954  -23.3591 C   0  0  0  0  0  0  0  0  0  0  0  0
  -11.4565    4.4363  -24.8523 C   0  0  0  0  0  0  0  0  0  0  0  0
   -4.9006   -0.2899  -21.9154 C   0  0  0  0  0  0  0  0  0  0  0  0
   -5.1475   -0.0211  -17.9636 C   0  0  0  0  0  0  0  0  0  0  0  0
   -5.4930   -0.3471  -19.3864 N   0  0  0  0  0  0  0  0  0  0  0  0
   -4.5552    0.0361  -20.4926 C   0  0  0  0  0  0  0  0  0  0  0  0
   -3.2719    0.7454  -20.1759 O   0  0  0  0  0  0  0  0  0  0  0  0
   -6.3352   -0.8126  -19.5943 H   0  0  0  0  0  0  0  0  0  0  0  0
 31 32  1  0  0  0
 32 33  1  0  0  0
 33 34  2  0  0  0
 33 30  1  0  0  0
 30  1  1  0  0  0
  1  2  1  0  0  0
  3  2  1  0  0  0
  3  4  1  0  0  0
  4  5  2  0  0  0
  4  6  1  0  0  0
  6 20  1  0  0  0
 20 21  2  0  0  0
 21 22  1  0  0  0
 22 23  2  0  0  0
 23 24  1  0  0  0
 24 25  2  0  0  0
 25 26  1  0  0  0
 26 27  2  0  0  0
 27 28  1  0  0  0
 28 29  2  0  0  0
  6  7  1  0  0  0
  7  8  1  0  0  0
  8  9  1  0  0  0
  8 10  1  0  0  0
  3 11  1  0  0  0
 11 12  2  0  0  0
 12 13  1  0  0  0
 13 14  1  0  0  0
 13 15  2  0  0  0
 15 16  1  0  0  0
 16 17  2  0  0  0
 17 18  1  0  0  0
 18 19  2  0  0  0
 18  1  1  0  0  0
  8  3  1  0  0  0
 17 11  1  0  0  0
 29 20  1  0  0  0
 29 24  1  0  0  0
 32 35  1  0  0  0
M  END
> <minimizedAffinity>
-8.20965

> <CNNscore>
0.2366084754

> <CNNaffinity>
5.9005575180

> <CNN_VS>
1.3961218596

> <CNNaffinity_variance>
0.1700625420

$$$$



 35 39  0  0  0  0  0  0  0  0999 V2000
   -7.6750   -3.9696  -26.0137 N   0  0  0  0  0  0  0  0  0  0  0  0
   -7.1631   -4.0086  -24.6043 C   0  0  0  0  0  0  0  0  0  0  0  0
   -6.9534   -2.7310  -23.8469 C   0  0  0  0  0  0  0  0  0  0  0  0
   -6.6958   -1.5422  -22.9692 C   0  0  0  0  0  0  0  0  0  0  0  0
   -6.7679   -0.3296  -22.9996 O   0  0  0  0  0  0  0  0  0  0  0  0
   -6.1923   -2.0421  -21.6476 N   0  0  0  0  0  0  0  0  0  0  0  0
   -6.1389   -3.5399  -21.7085 C   0  0  0  0  0  0  0  0  0  0  0  0
   -6.6092   -3.9656  -23.0677 C   0  0  0  0  0  0  0  0  0  0  0  0
   -6.3521   -5.3498  -22.5501 C   0  0  0  0  0  0  0  0  0  0  0  0
   -7.0259   -4.6808  -24.3188 C   0  0  0  0  0  0  0  0  0  0  0  0
   -7.2557   -1.4143  -24.4989 C   0  0  0  0  0  0  0  0  0  0  0  0
   -7.0461   -0.1367  -23.7415 C   0  0  0  0  0  0  0  0  0  0  0  0
   -7.3484    1.1799  -24.3935 C   0  0  0  0  0  0  0  0  0  0  0  0
   -7.1387    2.4576  -23.6361 Cl  0  0  0  0  0  0  0  0  0  0  0  0
   -7.8603    1.2189  -25.8029 C   0  0  0  0  0  0  0  0  0  0  0  0
   -8.0700   -0.0587  -26.5603 C   0  0  0  0  0  0  0  0  0  0  0  0
   -7.7677   -1.3753  -25.9083 C   0  0  0  0  0  0  0  0  0  0  0  0
   -7.9773   -2.6530  -26.6657 C   0  0  0  0  0  0  0  0  0  0  0  0
   -8.4893   -2.6140  -28.0751 O   0  0  0  0  0  0  0  0  0  0  0  0
   -5.8096   -1.1932  -20.4716 C   0  0  0  0  0  0  0  0  0  0  0  0
   -6.5567   -1.3238  -19.1775 C   0  0  0  0  0  0  0  0  0  0  0  0
   -6.1740   -0.4750  -18.0015 N   0  0  0  0  0  0  0  0  0  0  0  0
   -5.0442    0.5045  -18.1197 C   0  0  0  0  0  0  0  0  0  0  0  0
   -4.2971    0.6352  -19.4138 C   0  0  0  0  0  0  0  0  0  0  0  0
   -3.1672    1.6148  -19.5320 C   0  0  0  0  0  0  0  0  0  0  0  0
   -2.4201    1.7454  -20.8262 C   0  0  0  0  0  0  0  0  0  0  0  0
   -2.8029    0.8965  -22.0021 C   0  0  0  0  0  0  0  0  0  0  0  0
   -3.9327   -0.0830  -21.8840 C   0  0  0  0  0  0  0  0  0  0  0  0
   -4.6798   -0.2137  -20.5898 C   0  0  0  0  0  0  0  0  0  0  0  0
   -7.8847   -5.2473  -26.7711 C   0  0  0  0  0  0  0  0  0  0  0  0
   -4.9905   -7.7545  -27.8141 C   0  0  0  0  0  0  0  0  0  0  0  0
   -6.1266   -7.1394  -27.0518 N   0  0  0  0  0  0  0  0  0  0  0  0
   -6.7486   -5.8623  -27.5334 C   0  0  0  0  0  0  0  0  0  0  0  0
   -6.2346   -5.2002  -28.7774 O   0  0  0  0  0  0  0  0  0  0  0  0
   -6.4639   -7.5740  -26.2354 H   0  0  0  0  0  0  0  0  0  0  0  0
 31 32  1  0  0  0
 32 33  1  0  0  0
 33 34  2  0  0  0
 33 30  1  0  0  0
 30  1  1  0  0  0
  1  2  1  0  0  0
  3  2  1  0  0  0
  3  4  1  0  0  0
  4  5  2  0  0  0
  4  6  1  0  0  0
  6 20  1  0  0  0
 20 21  2  0  0  0
 21 22  1  0  0  0
 22 23  2  0  0  0
 23 24  1  0  0  0
 24 25  2  0  0  0
 25 26  1  0  0  0
 26 27  2  0  0  0
 27 28  1  0  0  0
 28 29  2  0  0  0
  6  7  1  0  0  0
  7  8  1  0  0  0
  8  9  1  0  0  0
  8 10  1  0  0  0
  3 11  1  0  0  0
 11 12  2  0  0  0
 12 13  1  0  0  0
 13 14  1  0  0  0
 13 15  2  0  0  0
 15 16  1  0  0  0
 16 17  2  0  0  0
 17 18  1  0  0  0
 18 19  2  0  0  0
 18  1  1  0  0  0
  8  3  1  0  0  0
 17 11  1  0  0  0
 29 20  1  0  0  0
 29 24  1  0  0  0
 32 35  1  0  0  0
M  END
> <minimizedAffinity>
-8.16947

> <CNNscore>
0.2249186933

> <CNNaffinity>
6.0480542183

> <CNN_VS>
1.3603204489

> <CNNaffinity_variance>
0.0847012177

$$$$



 35 39  0  0  0  0  0  0  0  0999 V2000
   -6.6241   -0.0999  -22.3381 N   0  0  0  0  0  0  0  0  0  0  0  0
   -7.0260    1.2792  -22.7700 C   0  0  0  0  0  0  0  0  0  0  0  0
   -8.4427    1.5540  -23.1791 C   0  0  0  0  0  0  0  0  0  0  0  0
   -9.8147    1.9771  -23.6134 C   0  0  0  0  0  0  0  0  0  0  0  0
  -10.9264    1.5122  -23.7692 O   0  0  0  0  0  0  0  0  0  0  0  0
   -9.7631    3.4367  -23.9554 N   0  0  0  0  0  0  0  0  0  0  0  0
   -8.3592    3.9157  -23.7324 C   0  0  0  0  0  0  0  0  0  0  0  0
   -7.5432    2.7521  -23.2526 C   0  0  0  0  0  0  0  0  0  0  0  0
   -6.4242    3.7505  -23.2246 C   0  0  0  0  0  0  0  0  0  0  0  0
   -6.4932    1.7972  -22.7670 C   0  0  0  0  0  0  0  0  0  0  0  0
   -9.4576    0.4496  -23.1563 C   0  0  0  0  0  0  0  0  0  0  0  0
  -10.8743    0.7244  -23.5654 C   0  0  0  0  0  0  0  0  0  0  0  0
  -11.8891   -0.3800  -23.5425 C   0  0  0  0  0  0  0  0  0  0  0  0
  -13.3059   -0.1052  -23.9516 Cl  0  0  0  0  0  0  0  0  0  0  0  0
  -11.4872   -1.7591  -23.1105 C   0  0  0  0  0  0  0  0  0  0  0  0
  -10.0705   -2.0338  -22.7014 C   0  0  0  0  0  0  0  0  0  0  0  0
   -9.0557   -0.9295  -22.7243 C   0  0  0  0  0  0  0  0  0  0  0  0
   -7.6389   -1.2042  -22.3152 C   0  0  0  0  0  0  0  0  0  0  0  0
   -7.2370   -2.5833  -21.8832 O   0  0  0  0  0  0  0  0  0  0  0  0
  -10.9135    4.2709  -24.4359 C   0  0  0  0  0  0  0  0  0  0  0  0
  -11.8444    4.9060  -23.4460 C   0  0  0  0  0  0  0  0  0  0  0  0
  -12.9947    5.7402  -23.9265 N   0  0  0  0  0  0  0  0  0  0  0  0
  -13.2141    5.9392  -25.3969 C   0  0  0  0  0  0  0  0  0  0  0  0
  -12.2832    5.3040  -26.3869 C   0  0  0  0  0  0  0  0  0  0  0  0
  -12.5026    5.5030  -27.8574 C   0  0  0  0  0  0  0  0  0  0  0  0
  -11.5716    4.8678  -28.8472 C   0  0  0  0  0  0  0  0  0  0  0  0
  -10.4213    4.0337  -28.3667 C   0  0  0  0  0  0  0  0  0  0  0  0
  -10.2019    3.8347  -26.8963 C   0  0  0  0  0  0  0  0  0  0  0  0
  -11.1328    4.4698  -25.9063 C   0  0  0  0  0  0  0  0  0  0  0  0
   -5.2073   -0.3746  -21.9290 C   0  0  0  0  0  0  0  0  0  0  0  0
   -5.2199   -0.0817  -17.9712 C   0  0  0  0  0  0  0  0  0  0  0  0
   -5.6670   -0.3785  -19.3719 N   0  0  0  0  0  0  0  0  0  0  0  0
   -4.7602   -0.0778  -20.5283 C   0  0  0  0  0  0  0  0  0  0  0  0
   -3.4061    0.5196  -20.2840 O   0  0  0  0  0  0  0  0  0  0  0  0
   -6.5557   -0.7706  -19.5323 H   0  0  0  0  0  0  0  0  0  0  0  0
 31 32  1  0  0  0
 32 33  1  0  0  0
 33 34  2  0  0  0
 33 30  1  0  0  0
 30  1  1  0  0  0
  1  2  1  0  0  0
  3  2  1  0  0  0
  3  4  1  0  0  0
  4  5  2  0  0  0
  4  6  1  0  0  0
  6 20  1  0  0  0
 20 21  2  0  0  0
 21 22  1  0  0  0
 22 23  2  0  0  0
 23 24  1  0  0  0
 24 25  2  0  0  0
 25 26  1  0  0  0
 26 27  2  0  0  0
 27 28  1  0  0  0
 28 29  2  0  0  0
  6  7  1  0  0  0
  7  8  1  0  0  0
  8  9  1  0  0  0
  8 10  1  0  0  0
  3 11  1  0  0  0
 11 12  2  0  0  0
 12 13  1  0  0  0
 13 14  1  0  0  0
 13 15  2  0  0  0
 15 16  1  0  0  0
 16 17  2  0  0  0
 17 18  1  0  0  0
 18 19  2  0  0  0
 18  1  1  0  0  0
  8  3  1  0  0  0
 17 11  1  0  0  0
 29 20  1  0  0  0
 29 24  1  0  0  0
 32 35  1  0  0  0
M  END
> <minimizedAffinity>
-8.40672

> <CNNscore>
0.1965088248

> <CNNaffinity>
5.9744381905

> <CNN_VS>
1.1740298271

> <CNNaffinity_variance>
0.1040157452

$$$$



 35 39  0  0  0  0  0  0  0  0999 V2000
   -6.0282    0.6896  -20.8391 N   0  0  0  0  0  0  0  0  0  0  0  0
   -6.3994    1.8649  -21.6939 C   0  0  0  0  0  0  0  0  0  0  0  0
   -7.6440    1.8208  -22.5300 C   0  0  0  0  0  0  0  0  0  0  0  0
   -8.8515    1.9216  -23.4141 C   0  0  0  0  0  0  0  0  0  0  0  0
   -9.8187    1.2658  -23.7471 O   0  0  0  0  0  0  0  0  0  0  0  0
   -8.8268    3.2648  -24.0814 N   0  0  0  0  0  0  0  0  0  0  0  0
   -7.6039    3.9942  -23.6096 C   0  0  0  0  0  0  0  0  0  0  0  0
   -6.8730    3.1018  -22.6508 C   0  0  0  0  0  0  0  0  0  0  0  0
   -5.9069    4.2462  -22.5675 C   0  0  0  0  0  0  0  0  0  0  0  0
   -5.9400    2.4486  -21.6745 C   0  0  0  0  0  0  0  0  0  0  0  0
   -8.5175    0.6015  -22.5111 C   0  0  0  0  0  0  0  0  0  0  0  0
   -9.7621    0.5574  -23.3471 C   0  0  0  0  0  0  0  0  0  0  0  0
  -10.6355   -0.6619  -23.3282 C   0  0  0  0  0  0  0  0  0  0  0  0
  -11.8802   -0.7060  -24.1643 Cl  0  0  0  0  0  0  0  0  0  0  0  0
  -10.2642   -1.8372  -22.4733 C   0  0  0  0  0  0  0  0  0  0  0  0
   -9.0196   -1.7932  -21.6373 C   0  0  0  0  0  0  0  0  0  0  0  0
   -8.1462   -0.5738  -21.6562 C   0  0  0  0  0  0  0  0  0  0  0  0
   -6.9016   -0.5298  -20.8202 C   0  0  0  0  0  0  0  0  0  0  0  0
   -6.5303   -1.7051  -19.9653 O   0  0  0  0  0  0  0  0  0  0  0  0
   -9.8459    3.7868  -25.0503 C   0  0  0  0  0  0  0  0  0  0  0  0
   -9.5617    3.7635  -26.5230 C   0  0  0  0  0  0  0  0  0  0  0  0
  -10.5808    4.2856  -27.4919 N   0  0  0  0  0  0  0  0  0  0  0  0
  -11.8842    4.8310  -26.9882 C   0  0  0  0  0  0  0  0  0  0  0  0
  -12.1684    4.8543  -25.5155 C   0  0  0  0  0  0  0  0  0  0  0  0
  -13.4718    5.3997  -25.0118 C   0  0  0  0  0  0  0  0  0  0  0  0
  -13.7559    5.4230  -23.5391 C   0  0  0  0  0  0  0  0  0  0  0  0
  -12.7368    4.9010  -22.5702 C   0  0  0  0  0  0  0  0  0  0  0  0
  -11.4335    4.3556  -23.0739 C   0  0  0  0  0  0  0  0  0  0  0  0
  -11.1492    4.3322  -24.5466 C   0  0  0  0  0  0  0  0  0  0  0  0
   -4.7835    0.7336  -20.0030 C   0  0  0  0  0  0  0  0  0  0  0  0
   -1.7885    3.2774  -20.5587 C   0  0  0  0  0  0  0  0  0  0  0  0
   -3.0398    2.6596  -20.0087 N   0  0  0  0  0  0  0  0  0  0  0  0
   -3.5321    1.3515  -20.5530 C   0  0  0  0  0  0  0  0  0  0  0  0
   -2.7731    0.6610  -21.6472 O   0  0  0  0  0  0  0  0  0  0  0  0
   -3.5380    3.1128  -19.2906 H   0  0  0  0  0  0  0  0  0  0  0  0
 31 32  1  0  0  0
 32 33  1  0  0  0
 33 34  2  0  0  0
 33 30  1  0  0  0
 30  1  1  0  0  0
  1  2  1  0  0  0
  3  2  1  0  0  0
  3  4  1  0  0  0
  4  5  2  0  0  0
  4  6  1  0  0  0
  6 20  1  0  0  0
 20 21  2  0  0  0
 21 22  1  0  0  0
 22 23  2  0  0  0
 23 24  1  0  0  0
 24 25  2  0  0  0
 25 26  1  0  0  0
 26 27  2  0  0  0
 27 28  1  0  0  0
 28 29  2  0  0  0
  6  7  1  0  0  0
  7  8  1  0  0  0
  8  9  1  0  0  0
  8 10  1  0  0  0
  3 11  1  0  0  0
 11 12  2  0  0  0
 12 13  1  0  0  0
 13 14  1  0  0  0
 13 15  2  0  0  0
 15 16  1  0  0  0
 16 17  2  0  0  0
 17 18  1  0  0  0
 18 19  2  0  0  0
 18  1  1  0  0  0
  8  3  1  0  0  0
 17 11  1  0  0  0
 29 20  1  0  0  0
 29 24  1  0  0  0
 32 35  1  0  0  0
M  END
> <minimizedAffinity>
-8.30480

> <CNNscore>
0.1779187769

> <CNNaffinity>
5.7466330528

> <CNN_VS>
1.0224338770

> <CNNaffinity_variance>
0.1599259824

$$$$
