


 35 39  0  0  0  0  0  0  0  0999 V2000
   10.7230    1.6127   22.8432 N   0  0  0  0  0  0  0  0  0  0  0  0
    9.3326    1.3098   23.3177 C   0  0  0  0  0  0  0  0  0  0  0  0
    9.0911    0.1546   24.2435 C   0  0  0  0  0  0  0  0  0  0  0  0
    8.6976   -0.9611   25.1656 C   0  0  0  0  0  0  0  0  0  0  0  0
    9.1994   -1.8806   25.7813 O   0  0  0  0  0  0  0  0  0  0  0  0
    7.2134   -0.8910   25.3712 N   0  0  0  0  0  0  0  0  0  0  0  0
    6.6896    0.2681   24.5762 C   0  0  0  0  0  0  0  0  0  0  0  0
    7.8501    0.9143   23.8792 C   0  0  0  0  0  0  0  0  0  0  0  0
    6.8060    1.8500   23.3459 C   0  0  0  0  0  0  0  0  0  0  0  0
    8.7923    1.7562   23.0707 C   0  0  0  0  0  0  0  0  0  0  0  0
   10.2399   -0.6977   24.6949 C   0  0  0  0  0  0  0  0  0  0  0  0
    9.9984   -1.8529   25.6207 C   0  0  0  0  0  0  0  0  0  0  0  0
   11.1472   -2.7053   26.0719 C   0  0  0  0  0  0  0  0  0  0  0  0
   10.9057   -3.8605   26.9978 Cl  0  0  0  0  0  0  0  0  0  0  0  0
   12.5376   -2.4024   25.5974 C   0  0  0  0  0  0  0  0  0  0  0  0
   12.7791   -1.2472   24.6717 C   0  0  0  0  0  0  0  0  0  0  0  0
   11.6303   -0.3949   24.2204 C   0  0  0  0  0  0  0  0  0  0  0  0
   11.8718    0.7604   23.2945 C   0  0  0  0  0  0  0  0  0  0  0  0
   13.2622    1.0633   22.8200 O   0  0  0  0  0  0  0  0  0  0  0  0
    6.3965   -1.8173   26.2225 C   0  0  0  0  0  0  0  0  0  0  0  0
    6.2058   -3.2458   25.8066 C   0  0  0  0  0  0  0  0  0  0  0  0
    5.3890   -4.1722   26.6578 N   0  0  0  0  0  0  0  0  0  0  0  0
    4.7627   -3.6700   27.9249 C   0  0  0  0  0  0  0  0  0  0  0  0
    4.9534   -2.2414   28.3408 C   0  0  0  0  0  0  0  0  0  0  0  0
    4.3271   -1.7392   29.6080 C   0  0  0  0  0  0  0  0  0  0  0  0
    4.5179   -0.3107   30.0238 C   0  0  0  0  0  0  0  0  0  0  0  0
    5.3348    0.6157   29.1726 C   0  0  0  0  0  0  0  0  0  0  0  0
    5.9610    0.1134   27.9055 C   0  0  0  0  0  0  0  0  0  0  0  0
    5.7703   -1.3151   27.4896 C   0  0  0  0  0  0  0  0  0  0  0  0
   10.9645    2.7680   21.9174 C   0  0  0  0  0  0  0  0  0  0  0  0
   10.7200    6.4286   23.4306 C   0  0  0  0  0  0  0  0  0  0  0  0
   10.3173    5.0944   22.8759 N   0  0  0  0  0  0  0  0  0  0  0  0
   11.3672    4.1022   22.4721 C   0  0  0  0  0  0  0  0  0  0  0  0
   12.8199    4.4441   22.6232 O   0  0  0  0  0  0  0  0  0  0  0  0
    9.3638    4.8700   22.7768 H   0  0  0  0  0  0  0  0  0  0  0  0
 31 32  1  0  0  0
 32 33  1  0  0  0
 33 34  2  0  0  0
 33 30  1  0  0  0
 30  1  1  0  0  0
  1  2  1  0  0  0
  3  2  1  0  0  0
  3  4  1  0  0  0
  4  5  2  0  0  0
  4  6  1  0  0  0
  6 20  1  0  0  0
 20 21  2  0  0  0
 21 22  1  0  0  0
 22 23  2  0  0  0
 23 24  1  0  0  0
 24 25  2  0  0  0
 25 26  1  0  0  0
 26 27  2  0  0  0
 27 28  1  0  0  0
 28 29  2  0  0  0
  6  7  1  0  0  0
  7  8  1  0  0  0
  8  9  1  0  0  0
  8 10  1  0  0  0
  3 11  1  0  0  0
 11 12  2  0  0  0
 12 13  1  0  0  0
 13 14  1  0  0  0
 13 15  2  0  0  0
 15 16  1  0  0  0
 16 17  2  0  0  0
 17 18  1  0  0  0
 18 19  2  0  0  0
 18  1  1  0  0  0
  8  3  1  0  0  0
 17 11  1  0  0  0
 29 20  1  0  0  0
 29 24  1  0  0  0
 32 35  1  0  0  0
M  END
> <minimizedAffinity>
-8.14305

> <CNNscore>
0.5148822069

> <CNNaffinity>
6.6721496582

> <CNN_VS>
3.4353711605

> <CNNaffinity_variance>
0.2094938308

$$$$



 35 39  0  0  0  0  0  0  0  0999 V2000
   10.2717    4.2768   22.7696 N   0  0  0  0  0  0  0  0  0  0  0  0
    8.9638    3.6339   23.1245 C   0  0  0  0  0  0  0  0  0  0  0  0
    8.9107    2.1698   23.4463 C   0  0  0  0  0  0  0  0  0  0  0  0
    8.7032    0.7244   23.7897 C   0  0  0  0  0  0  0  0  0  0  0  0
    9.3378   -0.3054   23.9044 O   0  0  0  0  0  0  0  0  0  0  0  0
    7.2449    0.5206   24.0758 N   0  0  0  0  0  0  0  0  0  0  0  0
    6.5511    1.8400   23.9091 C   0  0  0  0  0  0  0  0  0  0  0  0
    7.5806    2.8592   23.5201 C   0  0  0  0  0  0  0  0  0  0  0  0
    6.4148    3.8030   23.5122 C   0  0  0  0  0  0  0  0  0  0  0  0
    8.3664    4.0758   23.1294 C   0  0  0  0  0  0  0  0  0  0  0  0
   10.1656    1.3486   23.4132 C   0  0  0  0  0  0  0  0  0  0  0  0
   10.1125   -0.1155   23.7350 C   0  0  0  0  0  0  0  0  0  0  0  0
   11.3673   -0.9366   23.7019 C   0  0  0  0  0  0  0  0  0  0  0  0
   11.3143   -2.4008   24.0236 Cl  0  0  0  0  0  0  0  0  0  0  0  0
   12.6752   -0.2936   23.3470 C   0  0  0  0  0  0  0  0  0  0  0  0
   12.7283    1.1704   23.0252 C   0  0  0  0  0  0  0  0  0  0  0  0
   11.4735    1.9915   23.0583 C   0  0  0  0  0  0  0  0  0  0  0  0
   11.5265    3.4557   22.7365 C   0  0  0  0  0  0  0  0  0  0  0  0
   12.8345    4.0987   22.3816 O   0  0  0  0  0  0  0  0  0  0  0  0
    6.5947   -0.7751   24.4608 C   0  0  0  0  0  0  0  0  0  0  0  0
    6.4397   -1.8676   23.4447 C   0  0  0  0  0  0  0  0  0  0  0  0
    5.7895   -3.1633   23.8298 N   0  0  0  0  0  0  0  0  0  0  0  0
    5.2942   -3.3665   25.2310 C   0  0  0  0  0  0  0  0  0  0  0  0
    5.4491   -2.2740   26.2471 C   0  0  0  0  0  0  0  0  0  0  0  0
    4.9537   -2.4772   27.6483 C   0  0  0  0  0  0  0  0  0  0  0  0
    5.1087   -1.3847   28.6644 C   0  0  0  0  0  0  0  0  0  0  0  0
    5.7590   -0.0890   28.2793 C   0  0  0  0  0  0  0  0  0  0  0  0
    6.2543    0.1142   26.8781 C   0  0  0  0  0  0  0  0  0  0  0  0
    6.0994   -0.9783   25.8620 C   0  0  0  0  0  0  0  0  0  0  0  0
   10.3248    5.7410   22.4479 C   0  0  0  0  0  0  0  0  0  0  0  0
   10.7705    7.8165   25.8010 C   0  0  0  0  0  0  0  0  0  0  0  0
   11.0022    6.8022   24.7205 N   0  0  0  0  0  0  0  0  0  0  0  0
   10.0930    6.7552   23.5284 C   0  0  0  0  0  0  0  0  0  0  0  0
    8.9519    7.7225   23.4169 O   0  0  0  0  0  0  0  0  0  0  0  0
   11.7512    6.1674   24.7936 H   0  0  0  0  0  0  0  0  0  0  0  0
 31 32  1  0  0  0
 32 33  1  0  0  0
 33 34  2  0  0  0
 33 30  1  0  0  0
 30  1  1  0  0  0
  1  2  1  0  0  0
  3  2  1  0  0  0
  3  4  1  0  0  0
  4  5  2  0  0  0
  4  6  1  0  0  0
  6 20  1  0  0  0
 20 21  2  0  0  0
 21 22  1  0  0  0
 22 23  2  0  0  0
 23 24  1  0  0  0
 24 25  2  0  0  0
 25 26  1  0  0  0
 26 27  2  0  0  0
 27 28  1  0  0  0
 28 29  2  0  0  0
  6  7  1  0  0  0
  7  8  1  0  0  0
  8  9  1  0  0  0
  8 10  1  0  0  0
  3 11  1  0  0  0
 11 12  2  0  0  0
 12 13  1  0  0  0
 13 14  1  0  0  0
 13 15  2  0  0  0
 15 16  1  0  0  0
 16 17  2  0  0  0
 17 18  1  0  0  0
 18 19  2  0  0  0
 18  1  1  0  0  0
  8  3  1  0  0  0
 17 11  1  0  0  0
 29 20  1  0  0  0
 29 24  1  0  0  0
 32 35  1  0  0  0
M  END
> <minimizedAffinity>
-7.48928

> <CNNscore>
0.4401918352

> <CNNaffinity>
6.5948820114

> <CNN_VS>
2.9030132294

> <CNNaffinity_variance>
0.4929947257

$$$$



 35 39  0  0  0  0  0  0  0  0999 V2000
   10.8732    1.6737   22.6616 N   0  0  0  0  0  0  0  0  0  0  0  0
    9.4969    1.2671   23.0978 C   0  0  0  0  0  0  0  0  0  0  0  0
    9.3095    0.0436   23.9451 C   0  0  0  0  0  0  0  0  0  0  0  0
    8.9682   -1.1485   24.7892 C   0  0  0  0  0  0  0  0  0  0  0  0
    9.5132   -2.0775   25.3516 O   0  0  0  0  0  0  0  0  0  0  0  0
    7.4805   -1.1711   24.9796 N   0  0  0  0  0  0  0  0  0  0  0  0
    6.9023    0.0069   24.2531 C   0  0  0  0  0  0  0  0  0  0  0  0
    8.0326    0.7577   23.6137 C   0  0  0  0  0  0  0  0  0  0  0  0
    6.9445    1.6685   23.1275 C   0  0  0  0  0  0  0  0  0  0  0  0
    8.9355    1.6988   22.8727 C   0  0  0  0  0  0  0  0  0  0  0  0
   10.4985   -0.7734   24.3561 C   0  0  0  0  0  0  0  0  0  0  0  0
   10.3110   -1.9969   25.2034 C   0  0  0  0  0  0  0  0  0  0  0  0
   11.5000   -2.8138   25.6144 C   0  0  0  0  0  0  0  0  0  0  0  0
   11.3126   -4.0374   26.4617 Cl  0  0  0  0  0  0  0  0  0  0  0  0
   12.8764   -2.4072   25.1782 C   0  0  0  0  0  0  0  0  0  0  0  0
   13.0638   -1.1837   24.3310 C   0  0  0  0  0  0  0  0  0  0  0  0
   11.8748   -0.3668   23.9199 C   0  0  0  0  0  0  0  0  0  0  0  0
   12.0622    0.8568   23.0727 C   0  0  0  0  0  0  0  0  0  0  0  0
   13.4386    1.2634   22.6365 O   0  0  0  0  0  0  0  0  0  0  0  0
    6.7069   -2.1926   25.7595 C   0  0  0  0  0  0  0  0  0  0  0  0
    6.3048   -1.9076   27.1762 C   0  0  0  0  0  0  0  0  0  0  0  0
    5.5312   -2.9291   27.9561 N   0  0  0  0  0  0  0  0  0  0  0  0
    5.1598   -4.2354   27.3193 C   0  0  0  0  0  0  0  0  0  0  0  0
    5.5619   -4.5203   25.9026 C   0  0  0  0  0  0  0  0  0  0  0  0
    5.1905   -5.8267   25.2657 C   0  0  0  0  0  0  0  0  0  0  0  0
    5.5927   -6.1115   23.8490 C   0  0  0  0  0  0  0  0  0  0  0  0
    6.3663   -5.0901   23.0691 C   0  0  0  0  0  0  0  0  0  0  0  0
    6.7377   -3.7838   23.7059 C   0  0  0  0  0  0  0  0  0  0  0  0
    6.3355   -3.4989   25.1227 C   0  0  0  0  0  0  0  0  0  0  0  0
   11.0606    2.8973   21.8144 C   0  0  0  0  0  0  0  0  0  0  0  0
   10.8179    6.4683   23.5288 C   0  0  0  0  0  0  0  0  0  0  0  0
   10.4147    5.1707   22.8935 N   0  0  0  0  0  0  0  0  0  0  0  0
   11.4639    4.1949   22.4497 C   0  0  0  0  0  0  0  0  0  0  0  0
   12.9164    4.5167   22.6412 O   0  0  0  0  0  0  0  0  0  0  0  0
    9.4613    4.9594   22.7678 H   0  0  0  0  0  0  0  0  0  0  0  0
 31 32  1  0  0  0
 32 33  1  0  0  0
 33 34  2  0  0  0
 33 30  1  0  0  0
 30  1  1  0  0  0
  1  2  1  0  0  0
  3  2  1  0  0  0
  3  4  1  0  0  0
  4  5  2  0  0  0
  4  6  1  0  0  0
  6 20  1  0  0  0
 20 21  2  0  0  0
 21 22  1  0  0  0
 22 23  2  0  0  0
 23 24  1  0  0  0
 24 25  2  0  0  0
 25 26  1  0  0  0
 26 27  2  0  0  0
 27 28  1  0  0  0
 28 29  2  0  0  0
  6  7  1  0  0  0
  7  8  1  0  0  0
  8  9  1  0  0  0
  8 10  1  0  0  0
  3 11  1  0  0  0
 11 12  2  0  0  0
 12 13  1  0  0  0
 13 14  1  0  0  0
 13 15  2  0  0  0
 15 16  1  0  0  0
 16 17  2  0  0  0
 17 18  1  0  0  0
 18 19  2  0  0  0
 18  1  1  0  0  0
  8  3  1  0  0  0
 17 11  1  0  0  0
 29 20  1  0  0  0
 29 24  1  0  0  0
 32 35  1  0  0  0
M  END
> <minimizedAffinity>
-8.38488

> <CNNscore>
0.4148732126

> <CNNaffinity>
6.7319078445

> <CNN_VS>
2.7928881645

> <CNNaffinity_variance>
0.1713130027

$$$$



 35 39  0  0  0  0  0  0  0  0999 V2000
    3.8170   -5.1115   26.0875 N   0  0  0  0  0  0  0  0  0  0  0  0
    5.0938   -5.2176   25.3073 C   0  0  0  0  0  0  0  0  0  0  0  0
    6.0224   -4.0425   25.2252 C   0  0  0  0  0  0  0  0  0  0  0  0
    7.0439   -2.9575   25.0544 C   0  0  0  0  0  0  0  0  0  0  0  0
    7.2427   -1.8056   25.3858 O   0  0  0  0  0  0  0  0  0  0  0  0
    8.1547   -3.4966   24.2025 N   0  0  0  0  0  0  0  0  0  0  0  0
    7.8196   -4.9148   23.8469 C   0  0  0  0  0  0  0  0  0  0  0  0
    6.5017   -5.2521   24.4789 C   0  0  0  0  0  0  0  0  0  0  0  0
    6.7149   -6.5908   23.8367 C   0  0  0  0  0  0  0  0  0  0  0  0
    5.2284   -5.8694   24.9768 C   0  0  0  0  0  0  0  0  0  0  0  0
    5.6742   -2.7612   25.9233 C   0  0  0  0  0  0  0  0  0  0  0  0
    6.6028   -1.5861   25.8412 C   0  0  0  0  0  0  0  0  0  0  0  0
    6.2546   -0.3049   26.5393 C   0  0  0  0  0  0  0  0  0  0  0  0
    7.1833    0.8703   26.4572 Cl  0  0  0  0  0  0  0  0  0  0  0  0
    4.9779   -0.1989   27.3195 C   0  0  0  0  0  0  0  0  0  0  0  0
    4.0493   -1.3740   27.4015 C   0  0  0  0  0  0  0  0  0  0  0  0
    4.3974   -2.6552   26.7035 C   0  0  0  0  0  0  0  0  0  0  0  0
    3.4688   -3.8304   26.7855 C   0  0  0  0  0  0  0  0  0  0  0  0
    2.1921   -3.7243   27.5657 O   0  0  0  0  0  0  0  0  0  0  0  0
    9.3846   -2.7488   23.7804 C   0  0  0  0  0  0  0  0  0  0  0  0
    9.3776   -1.9494   22.5112 C   0  0  0  0  0  0  0  0  0  0  0  0
   10.6075   -1.2015   22.0891 N   0  0  0  0  0  0  0  0  0  0  0  0
   11.8443   -1.2532   22.9362 C   0  0  0  0  0  0  0  0  0  0  0  0
   11.8512   -2.0527   24.2054 C   0  0  0  0  0  0  0  0  0  0  0  0
   13.0881   -2.1043   25.0526 C   0  0  0  0  0  0  0  0  0  0  0  0
   13.0950   -2.9038   26.3218 C   0  0  0  0  0  0  0  0  0  0  0  0
   11.8651   -3.6516   26.7438 C   0  0  0  0  0  0  0  0  0  0  0  0
   10.6283   -3.5999   25.8967 C   0  0  0  0  0  0  0  0  0  0  0  0
   10.6214   -2.8005   24.6275 C   0  0  0  0  0  0  0  0  0  0  0  0
    2.8884   -6.2867   26.1695 C   0  0  0  0  0  0  0  0  0  0  0  0
    0.6241   -6.5010   22.9173 C   0  0  0  0  0  0  0  0  0  0  0  0
    1.8360   -6.4397   23.7991 N   0  0  0  0  0  0  0  0  0  0  0  0
    1.6765   -6.3480   25.2877 C   0  0  0  0  0  0  0  0  0  0  0  0
    0.3050   -6.3175   25.8946 O   0  0  0  0  0  0  0  0  0  0  0  0
    2.7361   -6.4597   23.4008 H   0  0  0  0  0  0  0  0  0  0  0  0
 31 32  1  0  0  0
 32 33  1  0  0  0
 33 34  2  0  0  0
 33 30  1  0  0  0
 30  1  1  0  0  0
  1  2  1  0  0  0
  3  2  1  0  0  0
  3  4  1  0  0  0
  4  5  2  0  0  0
  4  6  1  0  0  0
  6 20  1  0  0  0
 20 21  2  0  0  0
 21 22  1  0  0  0
 22 23  2  0  0  0
 23 24  1  0  0  0
 24 25  2  0  0  0
 25 26  1  0  0  0
 26 27  2  0  0  0
 27 28  1  0  0  0
 28 29  2  0  0  0
  6  7  1  0  0  0
  7  8  1  0  0  0
  8  9  1  0  0  0
  8 10  1  0  0  0
  3 11  1  0  0  0
 11 12  2  0  0  0
 12 13  1  0  0  0
 13 14  1  0  0  0
 13 15  2  0  0  0
 15 16  1  0  0  0
 16 17  2  0  0  0
 17 18  1  0  0  0
 18 19  2  0  0  0
 18  1  1  0  0  0
  8  3  1  0  0  0
 17 11  1  0  0  0
 29 20  1  0  0  0
 29 24  1  0  0  0
 32 35  1  0  0  0
M  END
> <minimizedAffinity>
-7.63884

> <CNNscore>
0.3983365595

> <CNNaffinity>
6.3939881325

> <CNN_VS>
2.5469591618

> <CNNaffinity_variance>
0.0708545297

$$$$



 35 39  0  0  0  0  0  0  0  0999 V2000
    9.3829    0.7394   23.3900 N   0  0  0  0  0  0  0  0  0  0  0  0
    8.0679    0.2123   23.8829 C   0  0  0  0  0  0  0  0  0  0  0  0
    8.0332   -0.9522   24.8277 C   0  0  0  0  0  0  0  0  0  0  0  0
    7.8420   -2.1037   25.7697 C   0  0  0  0  0  0  0  0  0  0  0  0
    8.4974   -2.9146   26.3935 O   0  0  0  0  0  0  0  0  0  0  0  0
    6.3691   -2.2834   25.9893 N   0  0  0  0  0  0  0  0  0  0  0  0
    5.6499   -1.2430   25.1829 C   0  0  0  0  0  0  0  0  0  0  0  0
    6.6784   -0.4203   24.4650 C   0  0  0  0  0  0  0  0  0  0  0  0
    5.4865    0.3158   23.9288 C   0  0  0  0  0  0  0  0  0  0  0  0
    7.4577    0.5564   23.6349 C   0  0  0  0  0  0  0  0  0  0  0  0
    9.3136   -1.5897   25.2796 C   0  0  0  0  0  0  0  0  0  0  0  0
    9.2789   -2.7542   26.2244 C   0  0  0  0  0  0  0  0  0  0  0  0
   10.5592   -3.3917   26.6763 C   0  0  0  0  0  0  0  0  0  0  0  0
   10.5246   -4.5563   27.6211 Cl  0  0  0  0  0  0  0  0  0  0  0  0
   11.8743   -2.8647   26.1835 C   0  0  0  0  0  0  0  0  0  0  0  0
   11.9089   -1.7002   25.2387 C   0  0  0  0  0  0  0  0  0  0  0  0
   10.6286   -1.0627   24.7868 C   0  0  0  0  0  0  0  0  0  0  0  0
   10.6632    0.1019   23.8420 C   0  0  0  0  0  0  0  0  0  0  0  0
   11.9783    0.6289   23.3491 O   0  0  0  0  0  0  0  0  0  0  0  0
    5.7280   -3.3214   26.8620 C   0  0  0  0  0  0  0  0  0  0  0  0
    5.6126   -3.0914   28.3398 C   0  0  0  0  0  0  0  0  0  0  0  0
    4.9715   -4.1294   29.2125 N   0  0  0  0  0  0  0  0  0  0  0  0
    4.4457   -5.3972   28.6075 C   0  0  0  0  0  0  0  0  0  0  0  0
    4.5611   -5.6271   27.1297 C   0  0  0  0  0  0  0  0  0  0  0  0
    4.0354   -6.8951   26.5246 C   0  0  0  0  0  0  0  0  0  0  0  0
    4.1508   -7.1249   25.0468 C   0  0  0  0  0  0  0  0  0  0  0  0
    4.7920   -6.0870   24.1741 C   0  0  0  0  0  0  0  0  0  0  0  0
    5.3177   -4.8191   24.7792 C   0  0  0  0  0  0  0  0  0  0  0  0
    5.2023   -4.5892   26.2570 C   0  0  0  0  0  0  0  0  0  0  0  0
    9.4175    1.9040   22.4452 C   0  0  0  0  0  0  0  0  0  0  0  0
    6.1816    4.0921   21.7449 C   0  0  0  0  0  0  0  0  0  0  0  0
    7.4505    3.5998   22.3753 N   0  0  0  0  0  0  0  0  0  0  0  0
    8.1486    2.3963   21.8148 C   0  0  0  0  0  0  0  0  0  0  0  0
    7.5778    1.6850   20.6239 O   0  0  0  0  0  0  0  0  0  0  0  0
    7.8252    4.0666   23.1569 H   0  0  0  0  0  0  0  0  0  0  0  0
 31 32  1  0  0  0
 32 33  1  0  0  0
 33 34  2  0  0  0
 33 30  1  0  0  0
 30  1  1  0  0  0
  1  2  1  0  0  0
  3  2  1  0  0  0
  3  4  1  0  0  0
  4  5  2  0  0  0
  4  6  1  0  0  0
  6 20  1  0  0  0
 20 21  2  0  0  0
 21 22  1  0  0  0
 22 23  2  0  0  0
 23 24  1  0  0  0
 24 25  2  0  0  0
 25 26  1  0  0  0
 26 27  2  0  0  0
 27 28  1  0  0  0
 28 29  2  0  0  0
  6  7  1  0  0  0
  7  8  1  0  0  0
  8  9  1  0  0  0
  8 10  1  0  0  0
  3 11  1  0  0  0
 11 12  2  0  0  0
 12 13  1  0  0  0
 13 14  1  0  0  0
 13 15  2  0  0  0
 15 16  1  0  0  0
 16 17  2  0  0  0
 17 18  1  0  0  0
 18 19  2  0  0  0
 18  1  1  0  0  0
  8  3  1  0  0  0
 17 11  1  0  0  0
 29 20  1  0  0  0
 29 24  1  0  0  0
 32 35  1  0  0  0
M  END
> <minimizedAffinity>
-7.76215

> <CNNscore>
0.3741090894

> <CNNaffinity>
6.3424181938

> <CNN_VS>
2.3727562428

> <CNNaffinity_variance>
0.2612946630

$$$$



 35 39  0  0  0  0  0  0  0  0999 V2000
    8.3679    4.4603   23.4182 N   0  0  0  0  0  0  0  0  0  0  0  0
    7.6145    3.2106   23.7655 C   0  0  0  0  0  0  0  0  0  0  0  0
    8.3056    1.8802   23.7168 C   0  0  0  0  0  0  0  0  0  0  0  0
    8.8603    0.4865   23.7133 C   0  0  0  0  0  0  0  0  0  0  0  0
    9.8992   -0.1012   23.4862 O   0  0  0  0  0  0  0  0  0  0  0  0
    7.7628   -0.4503   24.1229 N   0  0  0  0  0  0  0  0  0  0  0  0
    6.5298    0.3644   24.3797 C   0  0  0  0  0  0  0  0  0  0  0  0
    6.8653    1.8047   24.1287 C   0  0  0  0  0  0  0  0  0  0  0  0
    5.4324    2.0406   24.5045 C   0  0  0  0  0  0  0  0  0  0  0  0
    6.9013    3.2944   23.9563 C   0  0  0  0  0  0  0  0  0  0  0  0
    9.7502    1.7995   23.3208 C   0  0  0  0  0  0  0  0  0  0  0  0
   10.4413    0.4691   23.2721 C   0  0  0  0  0  0  0  0  0  0  0  0
   11.8858    0.3884   22.8761 C   0  0  0  0  0  0  0  0  0  0  0  0
   12.5770   -0.9420   22.8274 Cl  0  0  0  0  0  0  0  0  0  0  0  0
   12.6392    1.6381   22.5288 C   0  0  0  0  0  0  0  0  0  0  0  0
   11.9481    2.9685   22.5775 C   0  0  0  0  0  0  0  0  0  0  0  0
   10.5036    3.0492   22.9735 C   0  0  0  0  0  0  0  0  0  0  0  0
    9.8124    4.3796   23.0222 C   0  0  0  0  0  0  0  0  0  0  0  0
   10.5658    5.6293   22.6749 O   0  0  0  0  0  0  0  0  0  0  0  0
    7.8781   -1.9402   24.2530 C   0  0  0  0  0  0  0  0  0  0  0  0
    6.8707   -2.8312   23.5887 C   0  0  0  0  0  0  0  0  0  0  0  0
    6.9860   -4.3211   23.7188 N   0  0  0  0  0  0  0  0  0  0  0  0
    8.1086   -4.9200   24.5131 C   0  0  0  0  0  0  0  0  0  0  0  0
    9.1160   -4.0289   25.1774 C   0  0  0  0  0  0  0  0  0  0  0  0
   10.2388   -4.6278   25.9717 C   0  0  0  0  0  0  0  0  0  0  0  0
   11.2461   -3.7367   26.6359 C   0  0  0  0  0  0  0  0  0  0  0  0
   11.1308   -2.2468   26.5059 C   0  0  0  0  0  0  0  0  0  0  0  0
   10.0081   -1.6480   25.7115 C   0  0  0  0  0  0  0  0  0  0  0  0
    9.0008   -2.5390   25.0473 C   0  0  0  0  0  0  0  0  0  0  0  0
    7.6767    5.7907   23.4669 C   0  0  0  0  0  0  0  0  0  0  0  0
    8.5105    7.5435   26.9285 C   0  0  0  0  0  0  0  0  0  0  0  0
    8.6915    6.8400   25.6161 N   0  0  0  0  0  0  0  0  0  0  0  0
    7.4957    6.4942   24.7793 C   0  0  0  0  0  0  0  0  0  0  0  0
    6.1187    6.8519   25.2548 O   0  0  0  0  0  0  0  0  0  0  0  0
    9.5953    6.6052   25.3040 H   0  0  0  0  0  0  0  0  0  0  0  0
 31 32  1  0  0  0
 32 33  1  0  0  0
 33 34  2  0  0  0
 33 30  1  0  0  0
 30  1  1  0  0  0
  1  2  1  0  0  0
  3  2  1  0  0  0
  3  4  1  0  0  0
  4  5  2  0  0  0
  4  6  1  0  0  0
  6 20  1  0  0  0
 20 21  2  0  0  0
 21 22  1  0  0  0
 22 23  2  0  0  0
 23 24  1  0  0  0
 24 25  2  0  0  0
 25 26  1  0  0  0
 26 27  2  0  0  0
 27 28  1  0  0  0
 28 29  2  0  0  0
  6  7  1  0  0  0
  7  8  1  0  0  0
  8  9  1  0  0  0
  8 10  1  0  0  0
  3 11  1  0  0  0
 11 12  2  0  0  0
 12 13  1  0  0  0
 13 14  1  0  0  0
 13 15  2  0  0  0
 15 16  1  0  0  0
 16 17  2  0  0  0
 17 18  1  0  0  0
 18 19  2  0  0  0
 18  1  1  0  0  0
  8  3  1  0  0  0
 17 11  1  0  0  0
 29 20  1  0  0  0
 29 24  1  0  0  0
 32 35  1  0  0  0
M  END
> <minimizedAffinity>
-7.60734

> <CNNscore>
0.3671810627

> <CNNaffinity>
6.4391298294

> <CNN_VS>
2.3643264771

> <CNNaffinity_variance>
0.1573757678

$$$$



 35 39  0  0  0  0  0  0  0  0999 V2000
   10.1783    0.8065   23.2039 N   0  0  0  0  0  0  0  0  0  0  0  0
    8.7994    0.2766   23.4642 C   0  0  0  0  0  0  0  0  0  0  0  0
    8.6068   -0.8948   24.3811 C   0  0  0  0  0  0  0  0  0  0  0  0
    8.2604   -2.0530   25.2691 C   0  0  0  0  0  0  0  0  0  0  0  0
    8.8018   -2.8688   25.9885 O   0  0  0  0  0  0  0  0  0  0  0  0
    6.7716   -2.2336   25.2359 N   0  0  0  0  0  0  0  0  0  0  0  0
    6.1979   -1.1869   24.3274 C   0  0  0  0  0  0  0  0  0  0  0  0
    7.3321   -0.3595   23.7991 C   0  0  0  0  0  0  0  0  0  0  0  0
    6.2471    0.3811   23.0750 C   0  0  0  0  0  0  0  0  0  0  0  0
    8.2395    0.6227   23.1194 C   0  0  0  0  0  0  0  0  0  0  0  0
    9.7931   -1.5363   25.0378 C   0  0  0  0  0  0  0  0  0  0  0  0
    9.6005   -2.7076   25.9547 C   0  0  0  0  0  0  0  0  0  0  0  0
   10.7868   -3.3491   26.6114 C   0  0  0  0  0  0  0  0  0  0  0  0
   10.5942   -4.5205   27.5283 Cl  0  0  0  0  0  0  0  0  0  0  0  0
   12.1657   -2.8192   26.3511 C   0  0  0  0  0  0  0  0  0  0  0  0
   12.3583   -1.6478   25.4342 C   0  0  0  0  0  0  0  0  0  0  0  0
   11.1720   -1.0064   24.7775 C   0  0  0  0  0  0  0  0  0  0  0  0
   11.3646    0.1651   23.8606 C   0  0  0  0  0  0  0  0  0  0  0  0
   12.7436    0.6950   23.6003 O   0  0  0  0  0  0  0  0  0  0  0  0
    5.9933   -3.2775   25.9805 C   0  0  0  0  0  0  0  0  0  0  0  0
    5.6420   -4.5721   25.3092 C   0  0  0  0  0  0  0  0  0  0  0  0
    4.8637   -5.6160   26.0538 N   0  0  0  0  0  0  0  0  0  0  0  0
    4.4366   -5.3653   27.4697 C   0  0  0  0  0  0  0  0  0  0  0  0
    4.7879   -4.0707   28.1410 C   0  0  0  0  0  0  0  0  0  0  0  0
    4.3608   -3.8200   29.5569 C   0  0  0  0  0  0  0  0  0  0  0  0
    4.7121   -2.5254   30.2281 C   0  0  0  0  0  0  0  0  0  0  0  0
    5.4904   -1.4814   29.4835 C   0  0  0  0  0  0  0  0  0  0  0  0
    5.9175   -1.7321   28.0677 C   0  0  0  0  0  0  0  0  0  0  0  0
    5.5662   -3.0268   27.3964 C   0  0  0  0  0  0  0  0  0  0  0  0
   10.3709    1.9779   22.2869 C   0  0  0  0  0  0  0  0  0  0  0  0
    9.5341    5.6926   23.4051 C   0  0  0  0  0  0  0  0  0  0  0  0
    9.3749    4.3136   22.8369 N   0  0  0  0  0  0  0  0  0  0  0  0
   10.5301    3.3569   22.8552 C   0  0  0  0  0  0  0  0  0  0  0  0
   11.8445    3.7793   23.4418 O   0  0  0  0  0  0  0  0  0  0  0  0
    8.5123    4.0364   22.4518 H   0  0  0  0  0  0  0  0  0  0  0  0
 31 32  1  0  0  0
 32 33  1  0  0  0
 33 34  2  0  0  0
 33 30  1  0  0  0
 30  1  1  0  0  0
  1  2  1  0  0  0
  3  2  1  0  0  0
  3  4  1  0  0  0
  4  5  2  0  0  0
  4  6  1  0  0  0
  6 20  1  0  0  0
 20 21  2  0  0  0
 21 22  1  0  0  0
 22 23  2  0  0  0
 23 24  1  0  0  0
 24 25  2  0  0  0
 25 26  1  0  0  0
 26 27  2  0  0  0
 27 28  1  0  0  0
 28 29  2  0  0  0
  6  7  1  0  0  0
  7  8  1  0  0  0
  8  9  1  0  0  0
  8 10  1  0  0  0
  3 11  1  0  0  0
 11 12  2  0  0  0
 12 13  1  0  0  0
 13 14  1  0  0  0
 13 15  2  0  0  0
 15 16  1  0  0  0
 16 17  2  0  0  0
 17 18  1  0  0  0
 18 19  2  0  0  0
 18  1  1  0  0  0
  8  3  1  0  0  0
 17 11  1  0  0  0
 29 20  1  0  0  0
 29 24  1  0  0  0
 32 35  1  0  0  0
M  END
> <minimizedAffinity>
-7.80256

> <CNNscore>
0.3587650657

> <CNNaffinity>
6.4842896461

> <CNN_VS>
2.3263366222

> <CNNaffinity_variance>
0.1659335494

$$$$



 35 39  0  0  0  0  0  0  0  0999 V2000
    3.4232   -6.0642   25.0900 N   0  0  0  0  0  0  0  0  0  0  0  0
    4.7155   -5.9123   24.3437 C   0  0  0  0  0  0  0  0  0  0  0  0
    5.5811   -4.7103   24.5798 C   0  0  0  0  0  0  0  0  0  0  0  0
    6.5457   -3.5690   24.7103 C   0  0  0  0  0  0  0  0  0  0  0  0
    6.6775   -2.5268   25.3210 O   0  0  0  0  0  0  0  0  0  0  0  0
    7.6965   -3.8263   23.7832 N   0  0  0  0  0  0  0  0  0  0  0  0
    7.4431   -5.1267   23.0797 C   0  0  0  0  0  0  0  0  0  0  0  0
    6.1357   -5.6729   23.5720 C   0  0  0  0  0  0  0  0  0  0  0  0
    6.4298   -6.7990   22.6258 C   0  0  0  0  0  0  0  0  0  0  0  0
    4.8898   -6.4546   23.8666 C   0  0  0  0  0  0  0  0  0  0  0  0
    5.1544   -3.6600   25.5623 C   0  0  0  0  0  0  0  0  0  0  0  0
    6.0200   -2.4580   25.7984 C   0  0  0  0  0  0  0  0  0  0  0  0
    5.5933   -1.4079   26.7808 C   0  0  0  0  0  0  0  0  0  0  0  0
    6.4590   -0.2058   27.0169 Cl  0  0  0  0  0  0  0  0  0  0  0  0
    4.3011   -1.5598   27.5270 C   0  0  0  0  0  0  0  0  0  0  0  0
    3.4354   -2.7618   27.2909 C   0  0  0  0  0  0  0  0  0  0  0  0
    3.8621   -3.8119   26.3085 C   0  0  0  0  0  0  0  0  0  0  0  0
    2.9965   -5.0141   26.0724 C   0  0  0  0  0  0  0  0  0  0  0  0
    1.7042   -5.1660   26.8186 O   0  0  0  0  0  0  0  0  0  0  0  0
    8.8909   -2.9391   23.5930 C   0  0  0  0  0  0  0  0  0  0  0  0
    8.9132   -1.9411   22.4734 C   0  0  0  0  0  0  0  0  0  0  0  0
   10.1076   -1.0539   22.2832 N   0  0  0  0  0  0  0  0  0  0  0  0
   11.2797   -1.1647   23.2126 C   0  0  0  0  0  0  0  0  0  0  0  0
   11.2574   -2.1627   24.3322 C   0  0  0  0  0  0  0  0  0  0  0  0
   12.4296   -2.2734   25.2616 C   0  0  0  0  0  0  0  0  0  0  0  0
   12.4073   -3.2715   26.3812 C   0  0  0  0  0  0  0  0  0  0  0  0
   11.2128   -4.1587   26.5714 C   0  0  0  0  0  0  0  0  0  0  0  0
   10.0407   -4.0479   25.6420 C   0  0  0  0  0  0  0  0  0  0  0  0
   10.0630   -3.0499   24.5224 C   0  0  0  0  0  0  0  0  0  0  0  0
    2.5576   -7.2663   24.8538 C   0  0  0  0  0  0  0  0  0  0  0  0
   -0.0327   -6.5895   21.9243 C   0  0  0  0  0  0  0  0  0  0  0  0
    1.2638   -6.7327   22.6649 N   0  0  0  0  0  0  0  0  0  0  0  0
    1.2611   -7.1231   24.1132 C   0  0  0  0  0  0  0  0  0  0  0  0
   -0.0382   -7.3702   24.8209 O   0  0  0  0  0  0  0  0  0  0  0  0
    2.1166   -6.5705   22.2005 H   0  0  0  0  0  0  0  0  0  0  0  0
 31 32  1  0  0  0
 32 33  1  0  0  0
 33 34  2  0  0  0
 33 30  1  0  0  0
 30  1  1  0  0  0
  1  2  1  0  0  0
  3  2  1  0  0  0
  3  4  1  0  0  0
  4  5  2  0  0  0
  4  6  1  0  0  0
  6 20  1  0  0  0
 20 21  2  0  0  0
 21 22  1  0  0  0
 22 23  2  0  0  0
 23 24  1  0  0  0
 24 25  2  0  0  0
 25 26  1  0  0  0
 26 27  2  0  0  0
 27 28  1  0  0  0
 28 29  2  0  0  0
  6  7  1  0  0  0
  7  8  1  0  0  0
  8  9  1  0  0  0
  8 10  1  0  0  0
  3 11  1  0  0  0
 11 12  2  0  0  0
 12 13  1  0  0  0
 13 14  1  0  0  0
 13 15  2  0  0  0
 15 16  1  0  0  0
 16 17  2  0  0  0
 17 18  1  0  0  0
 18 19  2  0  0  0
 18  1  1  0  0  0
  8  3  1  0  0  0
 17 11  1  0  0  0
 29 20  1  0  0  0
 29 24  1  0  0  0
 32 35  1  0  0  0
M  END
> <minimizedAffinity>
-7.30366

> <CNNscore>
0.2972001433

> <CNNaffinity>
6.2083663940

> <CNN_VS>
1.8451273441

> <CNNaffinity_variance>
0.1011602134

$$$$



 35 39  0  0  0  0  0  0  0  0999 V2000
    4.8016    1.5188   22.1981 N   0  0  0  0  0  0  0  0  0  0  0  0
    5.7017    0.3303   22.3636 C   0  0  0  0  0  0  0  0  0  0  0  0
    7.1602    0.5285   22.6519 C   0  0  0  0  0  0  0  0  0  0  0  0
    8.6315    0.5702   22.9413 C   0  0  0  0  0  0  0  0  0  0  0  0
    9.5217    1.3767   23.1238 O   0  0  0  0  0  0  0  0  0  0  0  0
    9.1277   -0.8429   23.0252 N   0  0  0  0  0  0  0  0  0  0  0  0
    7.9631   -1.7579   22.7877 C   0  0  0  0  0  0  0  0  0  0  0  0
    6.7472   -0.9104   22.5570 C   0  0  0  0  0  0  0  0  0  0  0  0
    6.0494   -2.2297   22.4073 C   0  0  0  0  0  0  0  0  0  0  0  0
    5.3853   -0.3386   22.2950 C   0  0  0  0  0  0  0  0  0  0  0  0
    7.7188    1.9152   22.7749 C   0  0  0  0  0  0  0  0  0  0  0  0
    9.1774    2.1134   23.0633 C   0  0  0  0  0  0  0  0  0  0  0  0
    9.7359    3.5001   23.1862 C   0  0  0  0  0  0  0  0  0  0  0  0
   11.1945    3.6984   23.4746 Cl  0  0  0  0  0  0  0  0  0  0  0  0
    8.8358    4.6886   23.0208 C   0  0  0  0  0  0  0  0  0  0  0  0
    7.3772    4.4904   22.7324 C   0  0  0  0  0  0  0  0  0  0  0  0
    6.8187    3.1037   22.6095 C   0  0  0  0  0  0  0  0  0  0  0  0
    5.3601    2.9054   22.3211 C   0  0  0  0  0  0  0  0  0  0  0  0
    4.4600    4.0939   22.1557 O   0  0  0  0  0  0  0  0  0  0  0  0
   10.5404   -1.2665   23.2986 C   0  0  0  0  0  0  0  0  0  0  0  0
   11.6347   -0.8885   22.3449 C   0  0  0  0  0  0  0  0  0  0  0  0
   13.0474   -1.3121   22.6183 N   0  0  0  0  0  0  0  0  0  0  0  0
   13.3658   -2.1137   23.8454 C   0  0  0  0  0  0  0  0  0  0  0  0
   12.2715   -2.4918   24.7992 C   0  0  0  0  0  0  0  0  0  0  0  0
   12.5900   -3.2935   26.0264 C   0  0  0  0  0  0  0  0  0  0  0  0
   11.4956   -3.6714   26.9801 C   0  0  0  0  0  0  0  0  0  0  0  0
   10.0829   -3.2478   26.7067 C   0  0  0  0  0  0  0  0  0  0  0  0
    9.7645   -2.4462   25.4795 C   0  0  0  0  0  0  0  0  0  0  0  0
   10.8588   -2.0682   24.5258 C   0  0  0  0  0  0  0  0  0  0  0  0
    3.3429    1.3205   21.9098 C   0  0  0  0  0  0  0  0  0  0  0  0
    0.8172    2.7615   19.2089 C   0  0  0  0  0  0  0  0  0  0  0  0
    1.3872    2.3262   20.5264 N   0  0  0  0  0  0  0  0  0  0  0  0
    2.7729    1.7558   20.5923 C   0  0  0  0  0  0  0  0  0  0  0  0
    3.5888    1.6208   19.3408 O   0  0  0  0  0  0  0  0  0  0  0  0
    0.8517    2.4148   21.3477 H   0  0  0  0  0  0  0  0  0  0  0  0
 31 32  1  0  0  0
 32 33  1  0  0  0
 33 34  2  0  0  0
 33 30  1  0  0  0
 30  1  1  0  0  0
  1  2  1  0  0  0
  3  2  1  0  0  0
  3  4  1  0  0  0
  4  5  2  0  0  0
  4  6  1  0  0  0
  6 20  1  0  0  0
 20 21  2  0  0  0
 21 22  1  0  0  0
 22 23  2  0  0  0
 23 24  1  0  0  0
 24 25  2  0  0  0
 25 26  1  0  0  0
 26 27  2  0  0  0
 27 28  1  0  0  0
 28 29  2  0  0  0
  6  7  1  0  0  0
  7  8  1  0  0  0
  8  9  1  0  0  0
  8 10  1  0  0  0
  3 11  1  0  0  0
 11 12  2  0  0  0
 12 13  1  0  0  0
 13 14  1  0  0  0
 13 15  2  0  0  0
 15 16  1  0  0  0
 16 17  2  0  0  0
 17 18  1  0  0  0
 18 19  2  0  0  0
 18  1  1  0  0  0
  8  3  1  0  0  0
 17 11  1  0  0  0
 29 20  1  0  0  0
 29 24  1  0  0  0
 32 35  1  0  0  0
M  END
> <minimizedAffinity>
-7.53512

> <CNNscore>
0.2935174704

> <CNNaffinity>
6.4663114548

> <CNN_VS>
1.8979753256

> <CNNaffinity_variance>
0.3765817583

$$$$
