


 42 47  0  0  0  0  0  0  0  0999 V2000
   -7.1037   -0.9870  -23.0135 N   0  0  0  0  0  0  0  0  0  0  0  0
   -7.5255    0.4357  -23.2323 C   0  0  0  0  0  0  0  0  0  0  0  0
   -8.9825    0.7812  -23.3189 C   0  0  0  0  0  0  0  0  0  0  0  0
  -10.3946    1.2756  -23.4262 C   0  0  0  0  0  0  0  0  0  0  0  0
  -11.5336    0.8538  -23.3925 O   0  0  0  0  0  0  0  0  0  0  0  0
  -10.3511    2.7593  -23.6424 N   0  0  0  0  0  0  0  0  0  0  0  0
   -8.9121    3.1819  -23.6688 C   0  0  0  0  0  0  0  0  0  0  0  0
   -8.0663    1.9593  -23.4688 C   0  0  0  0  0  0  0  0  0  0  0  0
  -10.0179   -0.2962  -23.1866 C   0  0  0  0  0  0  0  0  0  0  0  0
  -11.4750    0.0493  -23.2732 C   0  0  0  0  0  0  0  0  0  0  0  0
  -12.5103   -1.0280  -23.1410 C   0  0  0  0  0  0  0  0  0  0  0  0
  -13.9675   -0.6826  -23.2276 Cl  0  0  0  0  0  0  0  0  0  0  0  0
  -12.0885   -2.4508  -22.9222 C   0  0  0  0  0  0  0  0  0  0  0  0
  -10.6314   -2.7962  -22.8356 C   0  0  0  0  0  0  0  0  0  0  0  0
   -9.5961   -1.7189  -22.9678 C   0  0  0  0  0  0  0  0  0  0  0  0
   -8.1390   -2.0643  -22.8812 C   0  0  0  0  0  0  0  0  0  0  0  0
   -7.7172   -3.4871  -22.6624 O   0  0  0  0  0  0  0  0  0  0  0  0
  -11.5382    3.6619  -23.8040 C   0  0  0  0  0  0  0  0  0  0  0  0
  -12.4651    3.8961  -22.6481 C   0  0  0  0  0  0  0  0  0  0  0  0
  -13.6522    4.7988  -22.8097 N   0  0  0  0  0  0  0  0  0  0  0  0
  -13.9123    5.4672  -24.1271 C   0  0  0  0  0  0  0  0  0  0  0  0
  -12.9854    5.2330  -25.2829 C   0  0  0  0  0  0  0  0  0  0  0  0
  -13.2455    5.9015  -26.6003 C   0  0  0  0  0  0  0  0  0  0  0  0
  -12.3185    5.6673  -27.7561 C   0  0  0  0  0  0  0  0  0  0  0  0
  -11.1314    4.7647  -27.5946 C   0  0  0  0  0  0  0  0  0  0  0  0
  -10.8713    4.0962  -26.2772 C   0  0  0  0  0  0  0  0  0  0  0  0
  -11.7983    4.3304  -25.1213 C   0  0  0  0  0  0  0  0  0  0  0  0
   -5.6465   -1.3325  -22.9269 C   0  0  0  0  0  0  0  0  0  0  0  0
   -2.5065    0.7155  -24.2292 C   0  0  0  0  0  0  0  0  0  0  0  0
   -3.4881    0.0645  -23.3004 N   0  0  0  0  0  0  0  0  0  0  0  0
   -4.6649   -0.6814  -23.8557 C   0  0  0  0  0  0  0  0  0  0  0  0
   -4.8603   -0.7764  -25.3399 O   0  0  0  0  0  0  0  0  0  0  0  0
   -3.3598    0.1268  -22.3262 H   0  0  0  0  0  0  0  0  0  0  0  0
   -6.5674    1.9215  -23.4263 C   0  0  0  0  0  0  0  0  0  0  0  0
   -5.8065    3.0471  -22.7908 N   0  0  0  0  0  0  0  0  0  0  0  0
   -6.0044    3.9784  -23.0415 H   0  0  0  0  0  0  0  0  0  0  0  0
   -4.7440    2.7540  -21.7733 C   0  0  0  0  0  0  0  0  0  0  0  0
   -3.4857    3.5700  -21.7465 C   0  0  0  0  0  0  0  0  0  0  0  0
   -2.4233    3.2769  -20.7291 C   0  0  0  0  0  0  0  0  0  0  0  0
   -2.6191    2.1678  -19.7384 N   0  0  0  0  0  0  0  0  0  0  0  0
   -3.8774    1.3517  -19.7652 C   0  0  0  0  0  0  0  0  0  0  0  0
   -4.9399    1.6449  -20.7826 N   0  0  0  0  0  0  0  0  0  0  0  0
 29 30  1  0  0  0
 30 31  1  0  0  0
 31 32  2  0  0  0
 31 28  1  0  0  0
 28  1  1  0  0  0
  1  2  1  0  0  0
  3  2  1  0  0  0
  3  4  1  0  0  0
  4  5  2  0  0  0
  4  6  1  0  0  0
  6 18  1  0  0  0
 18 19  2  0  0  0
 19 20  1  0  0  0
 20 21  2  0  0  0
 21 22  1  0  0  0
 22 23  2  0  0  0
 23 24  1  0  0  0
 24 25  2  0  0  0
 25 26  1  0  0  0
 26 27  2  0  0  0
  6  7  1  0  0  0
  7  8  1  0  0  0
  8 34  1  0  0  0
 34 35  1  0  0  0
 35 37  1  0  0  0
 37 38  2  0  0  0
 38 39  1  0  0  0
 39 40  2  0  0  0
 40 41  1  0  0  0
 41 42  2  0  0  0
  3  9  1  0  0  0
  9 10  2  0  0  0
 10 11  1  0  0  0
 11 12  1  0  0  0
 11 13  2  0  0  0
 13 14  1  0  0  0
 14 15  2  0  0  0
 15 16  1  0  0  0
 16 17  2  0  0  0
 16  1  1  0  0  0
  8  3  1  0  0  0
 42 37  1  0  0  0
 15  9  1  0  0  0
 27 18  1  0  0  0
 27 22  1  0  0  0
 30 33  1  0  0  0
 35 36  1  0  0  0
M  END
> <minimizedAffinity>
-7.93019

> <CNNscore>
0.6243222952

> <CNNaffinity>
6.8555650711

> <CNN_VS>
4.2800822258

> <CNNaffinity_variance>
0.1481298655

$$$$



 42 47  0  0  0  0  0  0  0  0999 V2000
   -7.2932   -1.2766  -22.5278 N   0  0  0  0  0  0  0  0  0  0  0  0
   -7.5121    0.1668  -22.8725 C   0  0  0  0  0  0  0  0  0  0  0  0
   -8.8997    0.6738  -23.1324 C   0  0  0  0  0  0  0  0  0  0  0  0
  -10.2223    1.3216  -23.4169 C   0  0  0  0  0  0  0  0  0  0  0  0
  -11.4026    1.0397  -23.4791 O   0  0  0  0  0  0  0  0  0  0  0  0
   -9.9744    2.7709  -23.7135 N   0  0  0  0  0  0  0  0  0  0  0  0
   -8.4985    3.0189  -23.6123 C   0  0  0  0  0  0  0  0  0  0  0  0
   -7.8343    1.7228  -23.2532 C   0  0  0  0  0  0  0  0  0  0  0  0
  -10.0685   -0.2627  -23.0476 C   0  0  0  0  0  0  0  0  0  0  0  0
  -11.4560    0.2443  -23.3076 C   0  0  0  0  0  0  0  0  0  0  0  0
  -12.6248   -0.6921  -23.2228 C   0  0  0  0  0  0  0  0  0  0  0  0
  -14.0124   -0.1852  -23.4827 Cl  0  0  0  0  0  0  0  0  0  0  0  0
  -12.4059   -2.1355  -22.8780 C   0  0  0  0  0  0  0  0  0  0  0  0
  -11.0183   -2.6424  -22.6181 C   0  0  0  0  0  0  0  0  0  0  0  0
   -9.8496   -1.7060  -22.7029 C   0  0  0  0  0  0  0  0  0  0  0  0
   -8.4620   -2.2130  -22.4430 C   0  0  0  0  0  0  0  0  0  0  0  0
   -8.2431   -3.6563  -22.0983 O   0  0  0  0  0  0  0  0  0  0  0  0
  -11.0190    3.7928  -24.0518 C   0  0  0  0  0  0  0  0  0  0  0  0
  -11.9341    4.3123  -22.9827 C   0  0  0  0  0  0  0  0  0  0  0  0
  -12.9787    5.3342  -23.3210 N   0  0  0  0  0  0  0  0  0  0  0  0
  -13.1082    5.8367  -24.7284 C   0  0  0  0  0  0  0  0  0  0  0  0
  -12.1932    5.3172  -25.7975 C   0  0  0  0  0  0  0  0  0  0  0  0
  -12.3228    5.8197  -27.2049 C   0  0  0  0  0  0  0  0  0  0  0  0
  -11.4077    5.3002  -28.2739 C   0  0  0  0  0  0  0  0  0  0  0  0
  -10.3631    4.2783  -27.9356 C   0  0  0  0  0  0  0  0  0  0  0  0
  -10.2335    3.7758  -26.5282 C   0  0  0  0  0  0  0  0  0  0  0  0
  -11.1486    4.2953  -25.4591 C   0  0  0  0  0  0  0  0  0  0  0  0
   -5.9056   -1.7835  -22.2678 C   0  0  0  0  0  0  0  0  0  0  0  0
   -5.5692   -5.7267  -21.9713 C   0  0  0  0  0  0  0  0  0  0  0  0
   -5.7710   -4.3616  -22.5594 N   0  0  0  0  0  0  0  0  0  0  0  0
   -5.7037   -3.1486  -21.6798 C   0  0  0  0  0  0  0  0  0  0  0  0
   -5.4345   -3.3005  -20.2119 O   0  0  0  0  0  0  0  0  0  0  0  0
   -5.9477   -4.2619  -23.5228 H   0  0  0  0  0  0  0  0  0  0  0  0
   -6.3630    1.5126  -23.0506 C   0  0  0  0  0  0  0  0  0  0  0  0
   -5.4722    2.6822  -22.7536 N   0  0  0  0  0  0  0  0  0  0  0  0
   -5.5703    3.5179  -23.2647 H   0  0  0  0  0  0  0  0  0  0  0  0
   -4.4318    2.5786  -21.6780 C   0  0  0  0  0  0  0  0  0  0  0  0
   -4.5703    1.5476  -20.5974 C   0  0  0  0  0  0  0  0  0  0  0  0
   -3.5300    1.4440  -19.5218 C   0  0  0  0  0  0  0  0  0  0  0  0
   -2.3511    2.3715  -19.5268 N   0  0  0  0  0  0  0  0  0  0  0  0
   -2.2126    3.4026  -20.6074 C   0  0  0  0  0  0  0  0  0  0  0  0
   -3.2529    3.5061  -21.6830 N   0  0  0  0  0  0  0  0  0  0  0  0
 29 30  1  0  0  0
 30 31  1  0  0  0
 31 32  2  0  0  0
 31 28  1  0  0  0
 28  1  1  0  0  0
  1  2  1  0  0  0
  3  2  1  0  0  0
  3  4  1  0  0  0
  4  5  2  0  0  0
  4  6  1  0  0  0
  6 18  1  0  0  0
 18 19  2  0  0  0
 19 20  1  0  0  0
 20 21  2  0  0  0
 21 22  1  0  0  0
 22 23  2  0  0  0
 23 24  1  0  0  0
 24 25  2  0  0  0
 25 26  1  0  0  0
 26 27  2  0  0  0
  6  7  1  0  0  0
  7  8  1  0  0  0
  8 34  1  0  0  0
 34 35  1  0  0  0
 35 37  1  0  0  0
 37 38  2  0  0  0
 38 39  1  0  0  0
 39 40  2  0  0  0
 40 41  1  0  0  0
 41 42  2  0  0  0
  3  9  1  0  0  0
  9 10  2  0  0  0
 10 11  1  0  0  0
 11 12  1  0  0  0
 11 13  2  0  0  0
 13 14  1  0  0  0
 14 15  2  0  0  0
 15 16  1  0  0  0
 16 17  2  0  0  0
 16  1  1  0  0  0
  8  3  1  0  0  0
 42 37  1  0  0  0
 15  9  1  0  0  0
 27 18  1  0  0  0
 27 22  1  0  0  0
 30 33  1  0  0  0
 35 36  1  0  0  0
M  END
> <minimizedAffinity>
-8.20883

> <CNNscore>
0.4665513933

> <CNNaffinity>
6.8770232201

> <CNN_VS>
3.2084846497

> <CNNaffinity_variance>
0.0841889083

$$$$



 42 47  0  0  0  0  0  0  0  0999 V2000
   -7.0003   -1.1914  -22.4399 N   0  0  0  0  0  0  0  0  0  0  0  0
   -7.0989    0.1319  -23.1392 C   0  0  0  0  0  0  0  0  0  0  0  0
   -8.4291    0.6259  -23.6256 C   0  0  0  0  0  0  0  0  0  0  0  0
   -9.6836    1.2470  -24.1645 C   0  0  0  0  0  0  0  0  0  0  0  0
  -10.8732    1.0158  -24.2527 O   0  0  0  0  0  0  0  0  0  0  0  0
   -9.3204    2.5655  -24.7807 N   0  0  0  0  0  0  0  0  0  0  0  0
   -7.8414    2.7592  -24.6227 C   0  0  0  0  0  0  0  0  0  0  0  0
   -7.2905    1.5605  -23.9088 C   0  0  0  0  0  0  0  0  0  0  0  0
   -9.6607   -0.2036  -23.4129 C   0  0  0  0  0  0  0  0  0  0  0  0
  -10.9909    0.2903  -23.8993 C   0  0  0  0  0  0  0  0  0  0  0  0
  -12.2224   -0.5391  -23.6865 C   0  0  0  0  0  0  0  0  0  0  0  0
  -13.5526   -0.0452  -24.1730 Cl  0  0  0  0  0  0  0  0  0  0  0  0
  -12.1237   -1.8625  -22.9873 C   0  0  0  0  0  0  0  0  0  0  0  0
  -10.7936   -2.3564  -22.5008 C   0  0  0  0  0  0  0  0  0  0  0  0
   -9.5621   -1.5270  -22.7136 C   0  0  0  0  0  0  0  0  0  0  0  0
   -8.2318   -2.0209  -22.2271 C   0  0  0  0  0  0  0  0  0  0  0  0
   -8.1332   -3.3442  -21.5279 O   0  0  0  0  0  0  0  0  0  0  0  0
  -10.2695    3.5222  -25.4393 C   0  0  0  0  0  0  0  0  0  0  0  0
  -10.1280    3.8332  -26.8999 C   0  0  0  0  0  0  0  0  0  0  0  0
  -11.0771    4.7899  -27.5585 N   0  0  0  0  0  0  0  0  0  0  0  0
  -12.1679    5.4357  -26.7565 C   0  0  0  0  0  0  0  0  0  0  0  0
  -12.3094    5.1247  -25.2959 C   0  0  0  0  0  0  0  0  0  0  0  0
  -13.4002    5.7706  -24.4938 C   0  0  0  0  0  0  0  0  0  0  0  0
  -13.5417    5.4596  -23.0333 C   0  0  0  0  0  0  0  0  0  0  0  0
  -12.5926    4.5028  -22.3747 C   0  0  0  0  0  0  0  0  0  0  0  0
  -11.5018    3.8571  -23.1767 C   0  0  0  0  0  0  0  0  0  0  0  0
  -11.3603    4.1680  -24.6373 C   0  0  0  0  0  0  0  0  0  0  0  0
   -5.6701   -1.6853  -21.9534 C   0  0  0  0  0  0  0  0  0  0  0  0
   -5.5203   -5.6506  -21.8883 C   0  0  0  0  0  0  0  0  0  0  0  0
   -5.6591   -4.2456  -22.3950 N   0  0  0  0  0  0  0  0  0  0  0  0
   -5.5313   -3.0903  -21.4468 C   0  0  0  0  0  0  0  0  0  0  0  0
   -5.2648   -3.3401  -19.9919 O   0  0  0  0  0  0  0  0  0  0  0  0
   -5.8340   -4.0817  -23.3498 H   0  0  0  0  0  0  0  0  0  0  0  0
   -5.8534    1.3358  -23.5425 C   0  0  0  0  0  0  0  0  0  0  0  0
   -4.9794    2.5013  -23.1855 N   0  0  0  0  0  0  0  0  0  0  0  0
   -4.9392    3.2862  -23.7783 H   0  0  0  0  0  0  0  0  0  0  0  0
   -4.1665    2.4709  -21.9252 C   0  0  0  0  0  0  0  0  0  0  0  0
   -3.0438    3.4469  -21.7331 C   0  0  0  0  0  0  0  0  0  0  0  0
   -2.2310    3.4165  -20.4729 C   0  0  0  0  0  0  0  0  0  0  0  0
   -2.5408    2.4101  -19.4045 N   0  0  0  0  0  0  0  0  0  0  0  0
   -3.6635    1.4341  -19.5966 C   0  0  0  0  0  0  0  0  0  0  0  0
   -4.4764    1.4645  -20.8569 N   0  0  0  0  0  0  0  0  0  0  0  0
 29 30  1  0  0  0
 30 31  1  0  0  0
 31 32  2  0  0  0
 31 28  1  0  0  0
 28  1  1  0  0  0
  1  2  1  0  0  0
  3  2  1  0  0  0
  3  4  1  0  0  0
  4  5  2  0  0  0
  4  6  1  0  0  0
  6 18  1  0  0  0
 18 19  2  0  0  0
 19 20  1  0  0  0
 20 21  2  0  0  0
 21 22  1  0  0  0
 22 23  2  0  0  0
 23 24  1  0  0  0
 24 25  2  0  0  0
 25 26  1  0  0  0
 26 27  2  0  0  0
  6  7  1  0  0  0
  7  8  1  0  0  0
  8 34  1  0  0  0
 34 35  1  0  0  0
 35 37  1  0  0  0
 37 38  2  0  0  0
 38 39  1  0  0  0
 39 40  2  0  0  0
 40 41  1  0  0  0
 41 42  2  0  0  0
  3  9  1  0  0  0
  9 10  2  0  0  0
 10 11  1  0  0  0
 11 12  1  0  0  0
 11 13  2  0  0  0
 13 14  1  0  0  0
 14 15  2  0  0  0
 15 16  1  0  0  0
 16 17  2  0  0  0
 16  1  1  0  0  0
  8  3  1  0  0  0
 42 37  1  0  0  0
 15  9  1  0  0  0
 27 18  1  0  0  0
 27 22  1  0  0  0
 30 33  1  0  0  0
 35 36  1  0  0  0
M  END
> <minimizedAffinity>
-7.96066

> <CNNscore>
0.3828870058

> <CNNaffinity>
6.7134566307

> <CNN_VS>
2.5704953671

> <CNNaffinity_variance>
0.1057324260

$$$$



 42 47  0  0  0  0  0  0  0  0999 V2000
   -6.8955   -0.9621  -22.4363 N   0  0  0  0  0  0  0  0  0  0  0  0
   -7.0413    0.3614  -23.1270 C   0  0  0  0  0  0  0  0  0  0  0  0
   -8.3839    0.7998  -23.6322 C   0  0  0  0  0  0  0  0  0  0  0  0
   -9.6557    1.3691  -24.1875 C   0  0  0  0  0  0  0  0  0  0  0  0
  -10.8322    1.0859  -24.2977 O   0  0  0  0  0  0  0  0  0  0  0  0
   -9.3415    2.7075  -24.7874 N   0  0  0  0  0  0  0  0  0  0  0  0
   -7.8754    2.9655  -24.6028 C   0  0  0  0  0  0  0  0  0  0  0  0
   -7.2836    1.7864  -23.8888 C   0  0  0  0  0  0  0  0  0  0  0  0
   -9.5807   -0.0853  -23.4467 C   0  0  0  0  0  0  0  0  0  0  0  0
  -10.9233    0.3531  -23.9519 C   0  0  0  0  0  0  0  0  0  0  0  0
  -12.1200   -0.5321  -23.7664 C   0  0  0  0  0  0  0  0  0  0  0  0
  -13.4626   -0.0937  -24.2716 Cl  0  0  0  0  0  0  0  0  0  0  0  0
  -11.9741   -1.8556  -23.0757 C   0  0  0  0  0  0  0  0  0  0  0  0
  -10.6315   -2.2939  -22.5705 C   0  0  0  0  0  0  0  0  0  0  0  0
   -9.4348   -1.4088  -22.7560 C   0  0  0  0  0  0  0  0  0  0  0  0
   -8.0921   -1.8472  -22.2508 C   0  0  0  0  0  0  0  0  0  0  0  0
   -7.9462   -3.1707  -21.5601 O   0  0  0  0  0  0  0  0  0  0  0  0
  -10.3213    3.6266  -25.4546 C   0  0  0  0  0  0  0  0  0  0  0  0
  -10.2004    3.9144  -26.9218 C   0  0  0  0  0  0  0  0  0  0  0  0
  -11.1802    4.8335  -27.5891 N   0  0  0  0  0  0  0  0  0  0  0  0
  -12.2808    5.4648  -26.7892 C   0  0  0  0  0  0  0  0  0  0  0  0
  -12.4017    5.1771  -25.3220 C   0  0  0  0  0  0  0  0  0  0  0  0
  -13.5024    5.8085  -24.5221 C   0  0  0  0  0  0  0  0  0  0  0  0
  -13.6232    5.5207  -23.0549 C   0  0  0  0  0  0  0  0  0  0  0  0
  -12.6435    4.6016  -22.3876 C   0  0  0  0  0  0  0  0  0  0  0  0
  -11.5428    3.9703  -23.1875 C   0  0  0  0  0  0  0  0  0  0  0  0
  -11.4219    4.2580  -24.6547 C   0  0  0  0  0  0  0  0  0  0  0  0
   -5.5528   -1.4004  -21.9311 C   0  0  0  0  0  0  0  0  0  0  0  0
   -5.1158   -0.3807  -18.1207 C   0  0  0  0  0  0  0  0  0  0  0  0
   -5.3645   -0.2766  -19.5962 N   0  0  0  0  0  0  0  0  0  0  0  0
   -5.3041   -1.5045  -20.4555 C   0  0  0  0  0  0  0  0  0  0  0  0
   -4.9950   -2.8368  -19.8392 O   0  0  0  0  0  0  0  0  0  0  0  0
   -5.5674    0.5978  -20.0008 H   0  0  0  0  0  0  0  0  0  0  0  0
   -5.8442    1.6228  -23.4999 C   0  0  0  0  0  0  0  0  0  0  0  0
   -5.2358    2.5342  -22.4757 N   0  0  0  0  0  0  0  0  0  0  0  0
   -5.6917    3.3710  -22.2286 H   0  0  0  0  0  0  0  0  0  0  0  0
   -3.9326    2.1706  -21.8278 C   0  0  0  0  0  0  0  0  0  0  0  0
   -2.7722    1.7324  -22.6713 C   0  0  0  0  0  0  0  0  0  0  0  0
   -1.4692    1.3688  -22.0235 C   0  0  0  0  0  0  0  0  0  0  0  0
   -1.3264    1.4434  -20.5321 N   0  0  0  0  0  0  0  0  0  0  0  0
   -2.4868    1.8816  -19.6886 C   0  0  0  0  0  0  0  0  0  0  0  0
   -3.7899    2.2452  -20.3365 N   0  0  0  0  0  0  0  0  0  0  0  0
 29 30  1  0  0  0
 30 31  1  0  0  0
 31 32  2  0  0  0
 31 28  1  0  0  0
 28  1  1  0  0  0
  1  2  1  0  0  0
  3  2  1  0  0  0
  3  4  1  0  0  0
  4  5  2  0  0  0
  4  6  1  0  0  0
  6 18  1  0  0  0
 18 19  2  0  0  0
 19 20  1  0  0  0
 20 21  2  0  0  0
 21 22  1  0  0  0
 22 23  2  0  0  0
 23 24  1  0  0  0
 24 25  2  0  0  0
 25 26  1  0  0  0
 26 27  2  0  0  0
  6  7  1  0  0  0
  7  8  1  0  0  0
  8 34  1  0  0  0
 34 35  1  0  0  0
 35 37  1  0  0  0
 37 38  2  0  0  0
 38 39  1  0  0  0
 39 40  2  0  0  0
 40 41  1  0  0  0
 41 42  2  0  0  0
  3  9  1  0  0  0
  9 10  2  0  0  0
 10 11  1  0  0  0
 11 12  1  0  0  0
 11 13  2  0  0  0
 13 14  1  0  0  0
 14 15  2  0  0  0
 15 16  1  0  0  0
 16 17  2  0  0  0
 16  1  1  0  0  0
  8  3  1  0  0  0
 42 37  1  0  0  0
 15  9  1  0  0  0
 27 18  1  0  0  0
 27 22  1  0  0  0
 30 33  1  0  0  0
 35 36  1  0  0  0
M  END
> <minimizedAffinity>
-7.95575

> <CNNscore>
0.2897753119

> <CNNaffinity>
6.3439369202

> <CNN_VS>
1.8383163214

> <CNNaffinity_variance>
0.2401005775

$$$$



 42 47  0  0  0  0  0  0  0  0999 V2000
   -5.4637   -6.0193  -23.5260 N   0  0  0  0  0  0  0  0  0  0  0  0
   -6.0477   -4.7496  -22.9812 C   0  0  0  0  0  0  0  0  0  0  0  0
   -7.1119   -4.0235  -23.7494 C   0  0  0  0  0  0  0  0  0  0  0  0
   -8.1766   -3.1919  -24.4012 C   0  0  0  0  0  0  0  0  0  0  0  0
   -8.8643   -3.1784  -25.4028 O   0  0  0  0  0  0  0  0  0  0  0  0
   -8.4565   -2.0169  -23.5118 N   0  0  0  0  0  0  0  0  0  0  0  0
   -7.5647   -2.1222  -22.3103 C   0  0  0  0  0  0  0  0  0  0  0  0
   -6.7338   -3.3624  -22.4571 C   0  0  0  0  0  0  0  0  0  0  0  0
   -7.5923   -4.5671  -25.0624 C   0  0  0  0  0  0  0  0  0  0  0  0
   -8.6565   -3.8410  -25.8305 C   0  0  0  0  0  0  0  0  0  0  0  0
   -9.1368   -4.3846  -27.1434 C   0  0  0  0  0  0  0  0  0  0  0  0
  -10.2011   -3.6584  -27.9116 Cl  0  0  0  0  0  0  0  0  0  0  0  0
   -8.5529   -5.6543  -27.6882 C   0  0  0  0  0  0  0  0  0  0  0  0
   -7.4886   -6.3804  -26.9200 C   0  0  0  0  0  0  0  0  0  0  0  0
   -7.0083   -5.8368  -25.6071 C   0  0  0  0  0  0  0  0  0  0  0  0
   -5.9440   -6.5629  -24.8389 C   0  0  0  0  0  0  0  0  0  0  0  0
   -5.3601   -7.8327  -25.3837 O   0  0  0  0  0  0  0  0  0  0  0  0
   -9.4531   -0.9277  -23.7773 C   0  0  0  0  0  0  0  0  0  0  0  0
   -9.0079    0.3593  -24.4062 C   0  0  0  0  0  0  0  0  0  0  0  0
  -10.0045    1.4484  -24.6717 N   0  0  0  0  0  0  0  0  0  0  0  0
  -11.4463    1.2506  -24.3084 C   0  0  0  0  0  0  0  0  0  0  0  0
  -11.8915   -0.0364  -23.6794 C   0  0  0  0  0  0  0  0  0  0  0  0
  -13.3333   -0.2342  -23.3160 C   0  0  0  0  0  0  0  0  0  0  0  0
  -13.7784   -1.5212  -22.6871 C   0  0  0  0  0  0  0  0  0  0  0  0
  -12.7818   -2.6104  -22.4216 C   0  0  0  0  0  0  0  0  0  0  0  0
  -11.3400   -2.4125  -22.7850 C   0  0  0  0  0  0  0  0  0  0  0  0
  -10.8949   -1.1255  -23.4139 C   0  0  0  0  0  0  0  0  0  0  0  0
   -4.3994   -6.7455  -22.7578 C   0  0  0  0  0  0  0  0  0  0  0  0
   -1.3617   -6.5814  -25.3063 C   0  0  0  0  0  0  0  0  0  0  0  0
   -2.6987   -6.3255  -24.6765 N   0  0  0  0  0  0  0  0  0  0  0  0
   -3.0623   -7.0014  -23.3877 C   0  0  0  0  0  0  0  0  0  0  0  0
   -2.0889   -7.9332  -22.7287 O   0  0  0  0  0  0  0  0  0  0  0  0
   -3.3377   -5.7140  -25.1089 H   0  0  0  0  0  0  0  0  0  0  0  0
   -5.7052   -3.8550  -21.4827 C   0  0  0  0  0  0  0  0  0  0  0  0
   -5.6751   -3.3114  -20.0851 N   0  0  0  0  0  0  0  0  0  0  0  0
   -5.9108   -3.8922  -19.3259 H   0  0  0  0  0  0  0  0  0  0  0  0
   -5.2858   -1.8830  -19.8440 C   0  0  0  0  0  0  0  0  0  0  0  0
   -5.6599   -1.2108  -18.5563 C   0  0  0  0  0  0  0  0  0  0  0  0
   -5.2706    0.2176  -18.3153 C   0  0  0  0  0  0  0  0  0  0  0  0
   -4.5073    0.9739  -19.3619 N   0  0  0  0  0  0  0  0  0  0  0  0
   -4.1333    0.3017  -20.6497 C   0  0  0  0  0  0  0  0  0  0  0  0
   -4.5225   -1.1268  -20.8907 N   0  0  0  0  0  0  0  0  0  0  0  0
 29 30  1  0  0  0
 30 31  1  0  0  0
 31 32  2  0  0  0
 31 28  1  0  0  0
 28  1  1  0  0  0
  1  2  1  0  0  0
  3  2  1  0  0  0
  3  4  1  0  0  0
  4  5  2  0  0  0
  4  6  1  0  0  0
  6 18  1  0  0  0
 18 19  2  0  0  0
 19 20  1  0  0  0
 20 21  2  0  0  0
 21 22  1  0  0  0
 22 23  2  0  0  0
 23 24  1  0  0  0
 24 25  2  0  0  0
 25 26  1  0  0  0
 26 27  2  0  0  0
  6  7  1  0  0  0
  7  8  1  0  0  0
  8 34  1  0  0  0
 34 35  1  0  0  0
 35 37  1  0  0  0
 37 38  2  0  0  0
 38 39  1  0  0  0
 39 40  2  0  0  0
 40 41  1  0  0  0
 41 42  2  0  0  0
  3  9  1  0  0  0
  9 10  2  0  0  0
 10 11  1  0  0  0
 11 12  1  0  0  0
 11 13  2  0  0  0
 13 14  1  0  0  0
 14 15  2  0  0  0
 15 16  1  0  0  0
 16 17  2  0  0  0
 16  1  1  0  0  0
  8  3  1  0  0  0
 42 37  1  0  0  0
 15  9  1  0  0  0
 27 18  1  0  0  0
 27 22  1  0  0  0
 30 33  1  0  0  0
 35 36  1  0  0  0
M  END
> <minimizedAffinity>
-7.90135

> <CNNscore>
0.2234392762

> <CNNaffinity>
6.5129523277

> <CNN_VS>
1.4552493095

> <CNNaffinity_variance>
0.2266797572

$$$$



 42 47  0  0  0  0  0  0  0  0999 V2000
   -9.1898   -2.6317  -23.2820 N   0  0  0  0  0  0  0  0  0  0  0  0
   -8.2352   -1.4756  -23.3263 C   0  0  0  0  0  0  0  0  0  0  0  0
   -8.7595   -0.0731  -23.4167 C   0  0  0  0  0  0  0  0  0  0  0  0
   -9.1341    1.3766  -23.5064 C   0  0  0  0  0  0  0  0  0  0  0  0
  -10.1225    2.0805  -23.5674 O   0  0  0  0  0  0  0  0  0  0  0  0
   -7.8688    2.1821  -23.5243 N   0  0  0  0  0  0  0  0  0  0  0  0
   -6.7122    1.2301  -23.4456 C   0  0  0  0  0  0  0  0  0  0  0  0
   -7.2627   -0.1636  -23.3791 C   0  0  0  0  0  0  0  0  0  0  0  0
  -10.2385    0.1732  -23.4626 C   0  0  0  0  0  0  0  0  0  0  0  0
  -10.7628    1.5757  -23.5529 C   0  0  0  0  0  0  0  0  0  0  0  0
  -12.2417    1.8220  -23.5988 C   0  0  0  0  0  0  0  0  0  0  0  0
  -12.7660    3.2245  -23.6892 Cl  0  0  0  0  0  0  0  0  0  0  0  0
  -13.1963    0.6658  -23.5545 C   0  0  0  0  0  0  0  0  0  0  0  0
  -12.6720   -0.7367  -23.4641 C   0  0  0  0  0  0  0  0  0  0  0  0
  -11.1931   -0.9829  -23.4182 C   0  0  0  0  0  0  0  0  0  0  0  0
  -10.6687   -2.3854  -23.3279 C   0  0  0  0  0  0  0  0  0  0  0  0
  -11.6234   -3.5416  -23.2835 O   0  0  0  0  0  0  0  0  0  0  0  0
   -7.7763    3.6769  -23.6064 C   0  0  0  0  0  0  0  0  0  0  0  0
   -7.3605    4.4700  -22.4030 C   0  0  0  0  0  0  0  0  0  0  0  0
   -7.2681    5.9648  -22.4851 N   0  0  0  0  0  0  0  0  0  0  0  0
   -7.5914    6.6667  -23.7707 C   0  0  0  0  0  0  0  0  0  0  0  0
   -8.0072    5.8737  -24.9742 C   0  0  0  0  0  0  0  0  0  0  0  0
   -8.3306    6.5757  -26.2598 C   0  0  0  0  0  0  0  0  0  0  0  0
   -8.7464    5.7826  -27.4632 C   0  0  0  0  0  0  0  0  0  0  0  0
   -8.8388    4.2877  -27.3811 C   0  0  0  0  0  0  0  0  0  0  0  0
   -8.5155    3.5858  -26.0955 C   0  0  0  0  0  0  0  0  0  0  0  0
   -8.0997    4.3788  -24.8920 C   0  0  0  0  0  0  0  0  0  0  0  0
   -8.6655   -4.0342  -23.1916 C   0  0  0  0  0  0  0  0  0  0  0  0
   -9.6064   -5.6904  -26.6733 C   0  0  0  0  0  0  0  0  0  0  0  0
   -9.6867   -4.8389  -25.4410 N   0  0  0  0  0  0  0  0  0  0  0  0
   -8.5852   -4.8857  -24.4239 C   0  0  0  0  0  0  0  0  0  0  0  0
   -7.4032   -5.7840  -24.6392 O   0  0  0  0  0  0  0  0  0  0  0  0
  -10.4624   -4.2494  -25.2997 H   0  0  0  0  0  0  0  0  0  0  0  0
   -6.4577   -1.4262  -23.2906 C   0  0  0  0  0  0  0  0  0  0  0  0
   -5.1951   -1.4555  -22.4814 N   0  0  0  0  0  0  0  0  0  0  0  0
   -4.3308   -1.6189  -22.9235 H   0  0  0  0  0  0  0  0  0  0  0  0
   -5.2493   -1.2360  -20.9985 C   0  0  0  0  0  0  0  0  0  0  0  0
   -4.6138   -0.0178  -20.3970 C   0  0  0  0  0  0  0  0  0  0  0  0
   -4.6679    0.2018  -18.9142 C   0  0  0  0  0  0  0  0  0  0  0  0
   -5.3577   -0.7969  -18.0328 N   0  0  0  0  0  0  0  0  0  0  0  0
   -5.9933   -2.0152  -18.6343 C   0  0  0  0  0  0  0  0  0  0  0  0
   -5.9391   -2.2347  -20.1172 N   0  0  0  0  0  0  0  0  0  0  0  0
 29 30  1  0  0  0
 30 31  1  0  0  0
 31 32  2  0  0  0
 31 28  1  0  0  0
 28  1  1  0  0  0
  1  2  1  0  0  0
  3  2  1  0  0  0
  3  4  1  0  0  0
  4  5  2  0  0  0
  4  6  1  0  0  0
  6 18  1  0  0  0
 18 19  2  0  0  0
 19 20  1  0  0  0
 20 21  2  0  0  0
 21 22  1  0  0  0
 22 23  2  0  0  0
 23 24  1  0  0  0
 24 25  2  0  0  0
 25 26  1  0  0  0
 26 27  2  0  0  0
  6  7  1  0  0  0
  7  8  1  0  0  0
  8 34  1  0  0  0
 34 35  1  0  0  0
 35 37  1  0  0  0
 37 38  2  0  0  0
 38 39  1  0  0  0
 39 40  2  0  0  0
 40 41  1  0  0  0
 41 42  2  0  0  0
  3  9  1  0  0  0
  9 10  2  0  0  0
 10 11  1  0  0  0
 11 12  1  0  0  0
 11 13  2  0  0  0
 13 14  1  0  0  0
 14 15  2  0  0  0
 15 16  1  0  0  0
 16 17  2  0  0  0
 16  1  1  0  0  0
  8  3  1  0  0  0
 42 37  1  0  0  0
 15  9  1  0  0  0
 27 18  1  0  0  0
 27 22  1  0  0  0
 30 33  1  0  0  0
 35 36  1  0  0  0
M  END
> <minimizedAffinity>
-8.22182

> <CNNscore>
0.1951390356

> <CNNaffinity>
6.4265341759

> <CNN_VS>
1.2540676594

> <CNNaffinity_variance>
0.6288828850

$$$$



 42 47  0  0  0  0  0  0  0  0999 V2000
   -3.6291    1.9205  -23.3615 N   0  0  0  0  0  0  0  0  0  0  0  0
   -4.8827    1.0992  -23.4261 C   0  0  0  0  0  0  0  0  0  0  0  0
   -6.2220    1.7745  -23.4363 C   0  0  0  0  0  0  0  0  0  0  0  0
   -7.6245    2.3061  -23.4537 C   0  0  0  0  0  0  0  0  0  0  0  0
   -8.2186    3.3658  -23.4294 O   0  0  0  0  0  0  0  0  0  0  0  0
   -8.5625    1.1376  -23.5230 N   0  0  0  0  0  0  0  0  0  0  0  0
   -7.7396   -0.1163  -23.5485 C   0  0  0  0  0  0  0  0  0  0  0  0
   -6.2932    0.2773  -23.4949 C   0  0  0  0  0  0  0  0  0  0  0  0
   -6.3079    3.2711  -23.3819 C   0  0  0  0  0  0  0  0  0  0  0  0
   -7.6472    3.9463  -23.3921 C   0  0  0  0  0  0  0  0  0  0  0  0
   -7.7330    5.4429  -23.3378 C   0  0  0  0  0  0  0  0  0  0  0  0
   -9.0724    6.1182  -23.3480 Cl  0  0  0  0  0  0  0  0  0  0  0  0
   -6.4795    6.2641  -23.2731 C   0  0  0  0  0  0  0  0  0  0  0  0
   -5.1401    5.5889  -23.2629 C   0  0  0  0  0  0  0  0  0  0  0  0
   -5.0543    4.0923  -23.3173 C   0  0  0  0  0  0  0  0  0  0  0  0
   -3.7150    3.4170  -23.3071 C   0  0  0  0  0  0  0  0  0  0  0  0
   -2.4614    4.2383  -23.2425 O   0  0  0  0  0  0  0  0  0  0  0  0
  -10.0602    1.2102  -23.5603 C   0  0  0  0  0  0  0  0  0  0  0  0
  -10.7401    2.5008  -23.9101 C   0  0  0  0  0  0  0  0  0  0  0  0
  -12.2378    2.5734  -23.9473 N   0  0  0  0  0  0  0  0  0  0  0  0
  -13.0558    1.3555  -23.6348 C   0  0  0  0  0  0  0  0  0  0  0  0
  -12.3759    0.0650  -23.2850 C   0  0  0  0  0  0  0  0  0  0  0  0
  -13.1939   -1.1530  -22.9725 C   0  0  0  0  0  0  0  0  0  0  0  0
  -12.5140   -2.4434  -22.6227 C   0  0  0  0  0  0  0  0  0  0  0  0
  -11.0162   -2.5161  -22.5854 C   0  0  0  0  0  0  0  0  0  0  0  0
  -10.1983   -1.2982  -22.8979 C   0  0  0  0  0  0  0  0  0  0  0  0
  -10.8781   -0.0077  -23.2477 C   0  0  0  0  0  0  0  0  0  0  0  0
   -2.2898    1.2451  -23.3513 C   0  0  0  0  0  0  0  0  0  0  0  0
    0.8415    1.3404  -20.9148 C   0  0  0  0  0  0  0  0  0  0  0  0
    0.0217    1.3614  -22.1708 N   0  0  0  0  0  0  0  0  0  0  0  0
   -1.4700    1.2241  -22.0952 C   0  0  0  0  0  0  0  0  0  0  0  0
   -2.1421    1.0656  -20.7636 O   0  0  0  0  0  0  0  0  0  0  0  0
    0.4628    1.4654  -23.0448 H   0  0  0  0  0  0  0  0  0  0  0  0
   -5.1233   -0.6615  -23.4992 C   0  0  0  0  0  0  0  0  0  0  0  0
   -4.8297   -1.4996  -22.2904 N   0  0  0  0  0  0  0  0  0  0  0  0
   -4.1934   -2.2482  -22.3532 H   0  0  0  0  0  0  0  0  0  0  0  0
   -5.5056   -1.1973  -20.9859 C   0  0  0  0  0  0  0  0  0  0  0  0
   -4.8082   -0.3580  -19.9567 C   0  0  0  0  0  0  0  0  0  0  0  0
   -5.4840   -0.0556  -18.6523 C   0  0  0  0  0  0  0  0  0  0  0  0
   -6.8574   -0.5926  -18.3768 N   0  0  0  0  0  0  0  0  0  0  0  0
   -7.5548   -1.4319  -19.4060 C   0  0  0  0  0  0  0  0  0  0  0  0
   -6.8789   -1.7342  -20.7106 N   0  0  0  0  0  0  0  0  0  0  0  0
 29 30  1  0  0  0
 30 31  1  0  0  0
 31 32  2  0  0  0
 31 28  1  0  0  0
 28  1  1  0  0  0
  1  2  1  0  0  0
  3  2  1  0  0  0
  3  4  1  0  0  0
  4  5  2  0  0  0
  4  6  1  0  0  0
  6 18  1  0  0  0
 18 19  2  0  0  0
 19 20  1  0  0  0
 20 21  2  0  0  0
 21 22  1  0  0  0
 22 23  2  0  0  0
 23 24  1  0  0  0
 24 25  2  0  0  0
 25 26  1  0  0  0
 26 27  2  0  0  0
  6  7  1  0  0  0
  7  8  1  0  0  0
  8 34  1  0  0  0
 34 35  1  0  0  0
 35 37  1  0  0  0
 37 38  2  0  0  0
 38 39  1  0  0  0
 39 40  2  0  0  0
 40 41  1  0  0  0
 41 42  2  0  0  0
  3  9  1  0  0  0
  9 10  2  0  0  0
 10 11  1  0  0  0
 11 12  1  0  0  0
 11 13  2  0  0  0
 13 14  1  0  0  0
 14 15  2  0  0  0
 15 16  1  0  0  0
 16 17  2  0  0  0
 16  1  1  0  0  0
  8  3  1  0  0  0
 42 37  1  0  0  0
 15  9  1  0  0  0
 27 18  1  0  0  0
 27 22  1  0  0  0
 30 33  1  0  0  0
 35 36  1  0  0  0
M  END
> <minimizedAffinity>
-8.10498

> <CNNscore>
0.1861138046

> <CNNaffinity>
6.2328071594

> <CNN_VS>
1.1600114107

> <CNNaffinity_variance>
0.2607007027

$$$$



 42 47  0  0  0  0  0  0  0  0999 V2000
   -7.1069   -3.4488  -22.4698 N   0  0  0  0  0  0  0  0  0  0  0  0
   -7.9096   -2.4859  -23.2934 C   0  0  0  0  0  0  0  0  0  0  0  0
   -7.6029   -1.0185  -23.2429 C   0  0  0  0  0  0  0  0  0  0  0  0
   -7.4133    0.4685  -23.2951 C   0  0  0  0  0  0  0  0  0  0  0  0
   -6.7072    1.3341  -22.8171 O   0  0  0  0  0  0  0  0  0  0  0  0
   -8.4295    1.0324  -24.2434 N   0  0  0  0  0  0  0  0  0  0  0  0
   -9.2472   -0.1061  -24.7774 C   0  0  0  0  0  0  0  0  0  0  0  0
   -8.7363   -1.3737  -24.1590 C   0  0  0  0  0  0  0  0  0  0  0  0
   -6.4934   -0.5139  -22.3686 C   0  0  0  0  0  0  0  0  0  0  0  0
   -6.1866    0.9535  -22.3180 C   0  0  0  0  0  0  0  0  0  0  0  0
   -5.0771    1.4580  -21.4438 C   0  0  0  0  0  0  0  0  0  0  0  0
   -4.7704    2.9255  -21.3932 Cl  0  0  0  0  0  0  0  0  0  0  0  0
   -4.2743    0.4952  -20.6201 C   0  0  0  0  0  0  0  0  0  0  0  0
   -4.5811   -0.9722  -20.6707 C   0  0  0  0  0  0  0  0  0  0  0  0
   -5.6906   -1.4768  -21.5449 C   0  0  0  0  0  0  0  0  0  0  0  0
   -5.9973   -2.9442  -21.5955 C   0  0  0  0  0  0  0  0  0  0  0  0
   -5.1946   -3.9071  -20.7718 O   0  0  0  0  0  0  0  0  0  0  0  0
   -8.5983    2.4806  -24.5959 C   0  0  0  0  0  0  0  0  0  0  0  0
   -7.5059    3.2080  -25.3223 C   0  0  0  0  0  0  0  0  0  0  0  0
   -7.6747    4.6562  -25.6748 N   0  0  0  0  0  0  0  0  0  0  0  0
   -8.9359    5.3769  -25.3010 C   0  0  0  0  0  0  0  0  0  0  0  0
  -10.0284    4.6495  -24.5746 C   0  0  0  0  0  0  0  0  0  0  0  0
  -11.2897    5.3704  -24.2008 C   0  0  0  0  0  0  0  0  0  0  0  0
  -12.3820    4.6429  -23.4745 C   0  0  0  0  0  0  0  0  0  0  0  0
  -12.2132    3.1947  -23.1220 C   0  0  0  0  0  0  0  0  0  0  0  0
  -10.9520    2.4739  -23.4958 C   0  0  0  0  0  0  0  0  0  0  0  0
   -9.8595    3.2013  -24.2221 C   0  0  0  0  0  0  0  0  0  0  0  0
   -7.4136   -4.9163  -22.5204 C   0  0  0  0  0  0  0  0  0  0  0  0
   -4.0498   -6.8293  -23.4004 C   0  0  0  0  0  0  0  0  0  0  0  0
   -5.1653   -5.8278  -23.4499 N   0  0  0  0  0  0  0  0  0  0  0  0
   -6.2981   -5.9178  -22.4708 C   0  0  0  0  0  0  0  0  0  0  0  0
   -6.3153   -7.0094  -21.4421 O   0  0  0  0  0  0  0  0  0  0  0  0
   -5.1540   -5.1114  -24.1251 H   0  0  0  0  0  0  0  0  0  0  0  0
   -9.2659   -2.7540  -24.4123 C   0  0  0  0  0  0  0  0  0  0  0  0
  -10.3432   -3.3170  -23.5335 N   0  0  0  0  0  0  0  0  0  0  0  0
  -10.2151   -4.1892  -23.0952 H   0  0  0  0  0  0  0  0  0  0  0  0
  -11.6156   -2.5512  -23.3224 C   0  0  0  0  0  0  0  0  0  0  0  0
  -11.8512   -1.2691  -24.0644 C   0  0  0  0  0  0  0  0  0  0  0  0
  -13.1235   -0.5033  -23.8533 C   0  0  0  0  0  0  0  0  0  0  0  0
  -14.1604   -1.0196  -22.9001 N   0  0  0  0  0  0  0  0  0  0  0  0
  -13.9247   -2.3018  -22.1581 C   0  0  0  0  0  0  0  0  0  0  0  0
  -12.6524   -3.0676  -22.3693 N   0  0  0  0  0  0  0  0  0  0  0  0
 29 30  1  0  0  0
 30 31  1  0  0  0
 31 32  2  0  0  0
 31 28  1  0  0  0
 28  1  1  0  0  0
  1  2  1  0  0  0
  3  2  1  0  0  0
  3  4  1  0  0  0
  4  5  2  0  0  0
  4  6  1  0  0  0
  6 18  1  0  0  0
 18 19  2  0  0  0
 19 20  1  0  0  0
 20 21  2  0  0  0
 21 22  1  0  0  0
 22 23  2  0  0  0
 23 24  1  0  0  0
 24 25  2  0  0  0
 25 26  1  0  0  0
 26 27  2  0  0  0
  6  7  1  0  0  0
  7  8  1  0  0  0
  8 34  1  0  0  0
 34 35  1  0  0  0
 35 37  1  0  0  0
 37 38  2  0  0  0
 38 39  1  0  0  0
 39 40  2  0  0  0
 40 41  1  0  0  0
 41 42  2  0  0  0
  3  9  1  0  0  0
  9 10  2  0  0  0
 10 11  1  0  0  0
 11 12  1  0  0  0
 11 13  2  0  0  0
 13 14  1  0  0  0
 14 15  2  0  0  0
 15 16  1  0  0  0
 16 17  2  0  0  0
 16  1  1  0  0  0
  8  3  1  0  0  0
 42 37  1  0  0  0
 15  9  1  0  0  0
 27 18  1  0  0  0
 27 22  1  0  0  0
 30 33  1  0  0  0
 35 36  1  0  0  0
M  END
> <minimizedAffinity>
-8.19881

> <CNNscore>
0.1794086695

> <CNNaffinity>
6.7513442039

> <CNN_VS>
1.2112497091

> <CNNaffinity_variance>
0.1477862895

$$$$



 42 47  0  0  0  0  0  0  0  0999 V2000
  -11.6444    3.8425  -23.9734 N   0  0  0  0  0  0  0  0  0  0  0  0
  -10.2588    3.2819  -23.8470 C   0  0  0  0  0  0  0  0  0  0  0  0
  -10.0627    1.8161  -23.5964 C   0  0  0  0  0  0  0  0  0  0  0  0
   -9.7123    0.3791  -23.3469 C   0  0  0  0  0  0  0  0  0  0  0  0
  -10.2541   -0.6955  -23.1791 O   0  0  0  0  0  0  0  0  0  0  0  0
   -8.2173    0.2690  -23.2936 N   0  0  0  0  0  0  0  0  0  0  0  0
   -7.6437    1.6380  -23.5101 C   0  0  0  0  0  0  0  0  0  0  0  0
   -8.7843    2.5941  -23.6972 C   0  0  0  0  0  0  0  0  0  0  0  0
  -11.2523    0.9107  -23.4721 C   0  0  0  0  0  0  0  0  0  0  0  0
  -11.0562   -0.5551  -23.2214 C   0  0  0  0  0  0  0  0  0  0  0  0
  -12.2458   -1.4603  -23.0971 C   0  0  0  0  0  0  0  0  0  0  0  0
  -12.0498   -2.9263  -22.8464 Cl  0  0  0  0  0  0  0  0  0  0  0  0
  -13.6313   -0.8998  -23.2235 C   0  0  0  0  0  0  0  0  0  0  0  0
  -13.8274    0.5660  -23.4742 C   0  0  0  0  0  0  0  0  0  0  0  0
  -12.6379    1.4713  -23.5985 C   0  0  0  0  0  0  0  0  0  0  0  0
  -12.8339    2.9372  -23.8491 C   0  0  0  0  0  0  0  0  0  0  0  0
  -14.2194    3.4978  -23.9755 O   0  0  0  0  0  0  0  0  0  0  0  0
   -7.4336   -0.9892  -23.0641 C   0  0  0  0  0  0  0  0  0  0  0  0
   -7.2134   -1.9522  -24.1929 C   0  0  0  0  0  0  0  0  0  0  0  0
   -6.4296   -3.2103  -23.9634 N   0  0  0  0  0  0  0  0  0  0  0  0
   -5.8660   -3.5056  -22.6051 C   0  0  0  0  0  0  0  0  0  0  0  0
   -6.0862   -2.5426  -21.4762 C   0  0  0  0  0  0  0  0  0  0  0  0
   -5.5226   -2.8379  -20.1178 C   0  0  0  0  0  0  0  0  0  0  0  0
   -5.7428   -1.8749  -18.9890 C   0  0  0  0  0  0  0  0  0  0  0  0
   -6.5265   -0.6167  -19.2185 C   0  0  0  0  0  0  0  0  0  0  0  0
   -7.0901   -0.3215  -20.5769 C   0  0  0  0  0  0  0  0  0  0  0  0
   -6.8700   -1.2844  -21.7057 C   0  0  0  0  0  0  0  0  0  0  0  0
  -11.8404    5.3084  -24.2241 C   0  0  0  0  0  0  0  0  0  0  0  0
  -13.9473    6.3688  -27.4157 C   0  0  0  0  0  0  0  0  0  0  0  0
  -13.6102    5.8822  -26.0375 N   0  0  0  0  0  0  0  0  0  0  0  0
  -12.1774    5.7951  -25.6024 C   0  0  0  0  0  0  0  0  0  0  0  0
  -11.0815    6.1946  -26.5455 O   0  0  0  0  0  0  0  0  0  0  0  0
  -14.3295    5.6199  -25.4184 H   0  0  0  0  0  0  0  0  0  0  0  0
   -8.6669    4.0693  -23.9422 C   0  0  0  0  0  0  0  0  0  0  0  0
   -7.9231    4.9345  -22.9684 N   0  0  0  0  0  0  0  0  0  0  0  0
   -8.3909    5.3129  -22.1892 H   0  0  0  0  0  0  0  0  0  0  0  0
   -6.4667    5.2231  -23.1818 C   0  0  0  0  0  0  0  0  0  0  0  0
   -5.4281    4.3929  -22.4875 C   0  0  0  0  0  0  0  0  0  0  0  0
   -3.9717    4.6815  -22.7009 C   0  0  0  0  0  0  0  0  0  0  0  0
   -3.5539    5.8003  -23.6086 N   0  0  0  0  0  0  0  0  0  0  0  0
   -4.5925    6.6304  -24.3029 C   0  0  0  0  0  0  0  0  0  0  0  0
   -6.0490    6.3418  -24.0895 N   0  0  0  0  0  0  0  0  0  0  0  0
 29 30  1  0  0  0
 30 31  1  0  0  0
 31 32  2  0  0  0
 31 28  1  0  0  0
 28  1  1  0  0  0
  1  2  1  0  0  0
  3  2  1  0  0  0
  3  4  1  0  0  0
  4  5  2  0  0  0
  4  6  1  0  0  0
  6 18  1  0  0  0
 18 19  2  0  0  0
 19 20  1  0  0  0
 20 21  2  0  0  0
 21 22  1  0  0  0
 22 23  2  0  0  0
 23 24  1  0  0  0
 24 25  2  0  0  0
 25 26  1  0  0  0
 26 27  2  0  0  0
  6  7  1  0  0  0
  7  8  1  0  0  0
  8 34  1  0  0  0
 34 35  1  0  0  0
 35 37  1  0  0  0
 37 38  2  0  0  0
 38 39  1  0  0  0
 39 40  2  0  0  0
 40 41  1  0  0  0
 41 42  2  0  0  0
  3  9  1  0  0  0
  9 10  2  0  0  0
 10 11  1  0  0  0
 11 12  1  0  0  0
 11 13  2  0  0  0
 13 14  1  0  0  0
 14 15  2  0  0  0
 15 16  1  0  0  0
 16 17  2  0  0  0
 16  1  1  0  0  0
  8  3  1  0  0  0
 42 37  1  0  0  0
 15  9  1  0  0  0
 27 18  1  0  0  0
 27 22  1  0  0  0
 30 33  1  0  0  0
 35 36  1  0  0  0
M  END
> <minimizedAffinity>
-7.94668

> <CNNscore>
0.1749171615

> <CNNaffinity>
6.6696906090

> <CNN_VS>
1.1666433811

> <CNNaffinity_variance>
0.1566583812

$$$$
