


 37 41  0  0  0  0  0  0  0  0999 V2000
    8.4826   -1.5491   22.8734 N   0  0  0  0  0  0  0  0  0  0  0  0
    8.9798   -1.1990   22.0992 H   0  0  0  0  0  0  0  0  0  0  0  0
    4.7862   -5.7826   26.2147 C   0  0  0  0  0  0  0  0  0  0  0  0
    4.7402   -4.9993   27.4931 O   0  0  0  0  0  0  0  0  0  0  0  0
    5.5438   -5.2492   25.0351 N   0  0  0  0  0  0  0  0  0  0  0  0
    5.5897   -6.0326   23.7567 C   0  0  0  0  0  0  0  0  0  0  0  0
    6.3474   -5.4992   22.5771 C   0  0  0  0  0  0  0  0  0  0  0  0
    7.0591   -4.1825   22.6759 C   0  0  0  0  0  0  0  0  0  0  0  0
    7.0132   -3.3992   23.9542 C   0  0  0  0  0  0  0  0  0  0  0  0
    6.2555   -3.9326   25.1339 C   0  0  0  0  0  0  0  0  0  0  0  0
    6.2096   -3.1492   26.4123 C   0  0  0  0  0  0  0  0  0  0  0  0
    6.9213   -1.8325   26.5110 C   0  0  0  0  0  0  0  0  0  0  0  0
    7.6790   -1.2992   25.3314 C   0  0  0  0  0  0  0  0  0  0  0  0
    7.7249   -2.0825   24.0530 C   0  0  0  0  0  0  0  0  0  0  0  0
    2.5966   -7.1733   26.3618 C   0  0  0  0  0  0  0  0  0  0  0  0
    4.0745   -7.0993   26.1160 C   0  0  0  0  0  0  0  0  0  0  0  0
    7.8164   -0.6015   21.9203 C   0  0  0  0  0  0  0  0  0  0  0  0
    8.5710    0.5804   21.3876 O   0  0  0  0  0  0  0  0  0  0  0  0
    6.3957   -0.8357   21.5000 C   0  0  0  0  0  0  0  0  0  0  0  0
    5.8661   -0.1904   20.2539 C   0  0  0  0  0  0  0  0  0  0  0  0
    6.5090   -0.4771   18.9293 C   0  0  0  0  0  0  0  0  0  0  0  0
    5.9794    0.1682   17.6832 N   0  0  0  0  0  0  0  0  0  0  0  0
    4.8068    1.1004   17.7615 C   0  0  0  0  0  0  0  0  0  0  0  0
    4.1639    1.3872   19.0860 C   0  0  0  0  0  0  0  0  0  0  0  0
    2.9913    2.3193   19.1644 C   0  0  0  0  0  0  0  0  0  0  0  0
    2.3483    2.6061   20.4889 C   0  0  0  0  0  0  0  0  0  0  0  0
    2.8779    1.9607   21.7351 C   0  0  0  0  0  0  0  0  0  0  0  0
    4.0506    1.0285   21.6568 C   0  0  0  0  0  0  0  0  0  0  0  0
    4.6935    0.7418   20.3322 C   0  0  0  0  0  0  0  0  0  0  0  0
    9.9063   -1.9633   22.6469 C   0  0  0  0  0  0  0  0  0  0  0  0
   10.8341   -2.1285   23.8138 C   0  0  0  0  0  0  0  0  0  0  0  0
   12.0899   -1.3120   23.8950 C   0  0  0  0  0  0  0  0  0  0  0  0
   13.0177   -1.4772   25.0619 C   0  0  0  0  0  0  0  0  0  0  0  0
   12.6898   -2.4588   26.1478 C   0  0  0  0  0  0  0  0  0  0  0  0
   11.4341   -3.2752   26.0666 C   0  0  0  0  0  0  0  0  0  0  0  0
   11.1062   -4.2568   27.1525 Cl  0  0  0  0  0  0  0  0  0  0  0  0
   10.5063   -3.1100   24.8997 C   0  0  0  0  0  0  0  0  0  0  0  0
 15 16  2  0  0  0
 16  3  1  0  0  0
  3  4  2  0  0  0
  3  5  1  0  0  0
  5  6  1  0  0  0
  6  7  1  0  0  0
  7  8  1  0  0  0
  8  9  1  0  0  0
  9 10  2  0  0  0
 10 11  1  0  0  0
 11 12  2  0  0  0
 12 13  1  0  0  0
 13 14  2  0  0  0
 14  1  1  0  0  0
  1 30  1  0  0  0
 30 31  1  0  0  0
 31 32  2  0  0  0
 32 33  1  0  0  0
 33 34  2  0  0  0
 34 35  1  0  0  0
 35 36  1  0  0  0
 35 37  2  0  0  0
  1 17  1  0  0  0
 17 18  2  0  0  0
 17 19  1  0  0  0
 19 20  1  0  0  0
 20 21  2  0  0  0
 21 22  1  0  0  0
 22 23  2  0  0  0
 23 24  1  0  0  0
 24 25  2  0  0  0
 25 26  1  0  0  0
 26 27  2  0  0  0
 27 28  1  0  0  0
 28 29  2  0  0  0
 10  5  1  0  0  0
 37 31  1  0  0  0
 29 20  1  0  0  0
 14  9  1  0  0  0
 29 24  1  0  0  0
  1  2  1  0  0  0
M  CHG 1   1   1
M  END
> <minimizedAffinity>
-8.64070

> <CNNscore>
0.8124487996

> <CNNaffinity>
7.1797127724

> <CNN_VS>
5.8331489563

> <CNNaffinity_variance>
0.1691291928

$$$$



 37 41  0  0  0  0  0  0  0  0999 V2000
    8.7060   -0.5710   23.8561 N   0  0  0  0  0  0  0  0  0  0  0  0
    7.9993   -1.1954   24.1387 H   0  0  0  0  0  0  0  0  0  0  0  0
   11.3659    5.2246   22.4115 C   0  0  0  0  0  0  0  0  0  0  0  0
   12.7278    4.7054   22.0572 O   0  0  0  0  0  0  0  0  0  0  0  0
   10.2891    4.2732   22.8421 N   0  0  0  0  0  0  0  0  0  0  0  0
    8.9272    4.7924   23.1965 C   0  0  0  0  0  0  0  0  0  0  0  0
    7.8505    3.8410   23.6271 C   0  0  0  0  0  0  0  0  0  0  0  0
    8.1356    2.3704   23.7035 C   0  0  0  0  0  0  0  0  0  0  0  0
    9.4975    1.8512   23.3491 C   0  0  0  0  0  0  0  0  0  0  0  0
   10.5743    2.8026   22.9185 C   0  0  0  0  0  0  0  0  0  0  0  0
   11.9362    2.2832   22.5641 C   0  0  0  0  0  0  0  0  0  0  0  0
   12.2214    0.8126   22.6405 C   0  0  0  0  0  0  0  0  0  0  0  0
   11.1446   -0.1388   23.0711 C   0  0  0  0  0  0  0  0  0  0  0  0
    9.7827    0.3804   23.4254 C   0  0  0  0  0  0  0  0  0  0  0  0
   10.6971    7.4501   23.5733 C   0  0  0  0  0  0  0  0  0  0  0  0
   11.0807    6.6952   22.3352 C   0  0  0  0  0  0  0  0  0  0  0  0
    7.6666   -1.0220   22.8731 C   0  0  0  0  0  0  0  0  0  0  0  0
    7.7564   -2.3882   22.2605 O   0  0  0  0  0  0  0  0  0  0  0  0
    6.5373   -0.1068   22.5028 C   0  0  0  0  0  0  0  0  0  0  0  0
    6.2258    0.1539   21.0589 C   0  0  0  0  0  0  0  0  0  0  0  0
    7.1870   -0.2832   19.9935 C   0  0  0  0  0  0  0  0  0  0  0  0
    6.8756   -0.0225   18.5496 N   0  0  0  0  0  0  0  0  0  0  0  0
    5.6029    0.6753   18.1709 C   0  0  0  0  0  0  0  0  0  0  0  0
    4.6417    1.1125   19.2363 C   0  0  0  0  0  0  0  0  0  0  0  0
    3.3690    1.8103   18.8578 C   0  0  0  0  0  0  0  0  0  0  0  0
    2.4078    2.2474   19.9231 C   0  0  0  0  0  0  0  0  0  0  0  0
    2.7193    1.9867   21.3671 C   0  0  0  0  0  0  0  0  0  0  0  0
    3.9920    1.2888   21.7457 C   0  0  0  0  0  0  0  0  0  0  0  0
    4.9532    0.8517   20.6803 C   0  0  0  0  0  0  0  0  0  0  0  0
    8.6687   -1.0713   25.2697 C   0  0  0  0  0  0  0  0  0  0  0  0
    9.7201   -2.0242   25.7560 C   0  0  0  0  0  0  0  0  0  0  0  0
    9.3214   -3.3499   26.3336 C   0  0  0  0  0  0  0  0  0  0  0  0
   10.3729   -4.3028   26.8199 C   0  0  0  0  0  0  0  0  0  0  0  0
   11.8230   -3.9299   26.7287 C   0  0  0  0  0  0  0  0  0  0  0  0
   12.2216   -2.6042   26.1512 C   0  0  0  0  0  0  0  0  0  0  0  0
   13.6717   -2.2313   26.0600 Cl  0  0  0  0  0  0  0  0  0  0  0  0
   11.1701   -1.6513   25.6648 C   0  0  0  0  0  0  0  0  0  0  0  0
 15 16  2  0  0  0
 16  3  1  0  0  0
  3  4  2  0  0  0
  3  5  1  0  0  0
  5  6  1  0  0  0
  6  7  1  0  0  0
  7  8  1  0  0  0
  8  9  1  0  0  0
  9 10  2  0  0  0
 10 11  1  0  0  0
 11 12  2  0  0  0
 12 13  1  0  0  0
 13 14  2  0  0  0
 14  1  1  0  0  0
  1 30  1  0  0  0
 30 31  1  0  0  0
 31 32  2  0  0  0
 32 33  1  0  0  0
 33 34  2  0  0  0
 34 35  1  0  0  0
 35 36  1  0  0  0
 35 37  2  0  0  0
  1 17  1  0  0  0
 17 18  2  0  0  0
 17 19  1  0  0  0
 19 20  1  0  0  0
 20 21  2  0  0  0
 21 22  1  0  0  0
 22 23  2  0  0  0
 23 24  1  0  0  0
 24 25  2  0  0  0
 25 26  1  0  0  0
 26 27  2  0  0  0
 27 28  1  0  0  0
 28 29  2  0  0  0
 10  5  1  0  0  0
 37 31  1  0  0  0
 29 20  1  0  0  0
 14  9  1  0  0  0
 29 24  1  0  0  0
  1  2  1  0  0  0
M  CHG 1   1   1
M  END
> <minimizedAffinity>
-9.42373

> <CNNscore>
0.6835677624

> <CNNaffinity>
7.2375130653

> <CNN_VS>
4.9473304749

> <CNNaffinity_variance>
0.0298142880

$$$$



 37 41  0  0  0  0  0  0  0  0999 V2000
    7.9144   -1.3249   23.1008 N   0  0  0  0  0  0  0  0  0  0  0  0
    8.2663   -1.6085   22.2261 H   0  0  0  0  0  0  0  0  0  0  0  0
    4.7948   -1.9745   28.8101 C   0  0  0  0  0  0  0  0  0  0  0  0
    5.0145   -0.5694   29.2871 O   0  0  0  0  0  0  0  0  0  0  0  0
    5.3308   -2.4066   27.4775 N   0  0  0  0  0  0  0  0  0  0  0  0
    5.1111   -3.8116   27.0005 C   0  0  0  0  0  0  0  0  0  0  0  0
    5.6472   -4.2437   25.6678 C   0  0  0  0  0  0  0  0  0  0  0  0
    6.4029   -3.2708   24.8122 C   0  0  0  0  0  0  0  0  0  0  0  0
    6.6226   -1.8658   25.2891 C   0  0  0  0  0  0  0  0  0  0  0  0
    6.0866   -1.4336   26.6218 C   0  0  0  0  0  0  0  0  0  0  0  0
    6.3063   -0.0285   27.0987 C   0  0  0  0  0  0  0  0  0  0  0  0
    7.0620    0.9444   26.2431 C   0  0  0  0  0  0  0  0  0  0  0  0
    7.5981    0.5123   24.9104 C   0  0  0  0  0  0  0  0  0  0  0  0
    7.3784   -0.8927   24.4335 C   0  0  0  0  0  0  0  0  0  0  0  0
    3.6629   -2.5767   31.0697 C   0  0  0  0  0  0  0  0  0  0  0  0
    4.0391   -2.9474   29.6658 C   0  0  0  0  0  0  0  0  0  0  0  0
    7.4312   -0.6592   21.8464 C   0  0  0  0  0  0  0  0  0  0  0  0
    8.2372    0.4417   21.2232 O   0  0  0  0  0  0  0  0  0  0  0  0
    6.1420   -1.0945   21.2152 C   0  0  0  0  0  0  0  0  0  0  0  0
    5.6028   -0.3570   20.0256 C   0  0  0  0  0  0  0  0  0  0  0  0
    6.0753   -0.7106   18.6466 C   0  0  0  0  0  0  0  0  0  0  0  0
    5.5361    0.0269   17.4569 N   0  0  0  0  0  0  0  0  0  0  0  0
    4.5243    1.1181   17.6462 C   0  0  0  0  0  0  0  0  0  0  0  0
    4.0518    1.4717   19.0252 C   0  0  0  0  0  0  0  0  0  0  0  0
    3.0402    2.5628   19.2146 C   0  0  0  0  0  0  0  0  0  0  0  0
    2.5677    2.9164   20.5936 C   0  0  0  0  0  0  0  0  0  0  0  0
    3.1068    2.1789   21.7833 C   0  0  0  0  0  0  0  0  0  0  0  0
    4.1186    1.0878   21.5940 C   0  0  0  0  0  0  0  0  0  0  0  0
    4.5911    0.7341   20.2149 C   0  0  0  0  0  0  0  0  0  0  0  0
    8.9337   -2.4226   23.0225 C   0  0  0  0  0  0  0  0  0  0  0  0
   10.3503   -2.1620   23.4413 C   0  0  0  0  0  0  0  0  0  0  0  0
   11.2682   -1.3888   22.5414 C   0  0  0  0  0  0  0  0  0  0  0  0
   12.6848   -1.1282   22.9602 C   0  0  0  0  0  0  0  0  0  0  0  0
   13.1835   -1.6408   24.2788 C   0  0  0  0  0  0  0  0  0  0  0  0
   12.2655   -2.4140   25.1785 C   0  0  0  0  0  0  0  0  0  0  0  0
   12.7642   -2.9266   26.4971 Cl  0  0  0  0  0  0  0  0  0  0  0  0
   10.8490   -2.6745   24.7598 C   0  0  0  0  0  0  0  0  0  0  0  0
 15 16  2  0  0  0
 16  3  1  0  0  0
  3  4  2  0  0  0
  3  5  1  0  0  0
  5  6  1  0  0  0
  6  7  1  0  0  0
  7  8  1  0  0  0
  8  9  1  0  0  0
  9 10  2  0  0  0
 10 11  1  0  0  0
 11 12  2  0  0  0
 12 13  1  0  0  0
 13 14  2  0  0  0
 14  1  1  0  0  0
  1 30  1  0  0  0
 30 31  1  0  0  0
 31 32  2  0  0  0
 32 33  1  0  0  0
 33 34  2  0  0  0
 34 35  1  0  0  0
 35 36  1  0  0  0
 35 37  2  0  0  0
  1 17  1  0  0  0
 17 18  2  0  0  0
 17 19  1  0  0  0
 19 20  1  0  0  0
 20 21  2  0  0  0
 21 22  1  0  0  0
 22 23  2  0  0  0
 23 24  1  0  0  0
 24 25  2  0  0  0
 25 26  1  0  0  0
 26 27  2  0  0  0
 27 28  1  0  0  0
 28 29  2  0  0  0
 10  5  1  0  0  0
 37 31  1  0  0  0
 29 20  1  0  0  0
 14  9  1  0  0  0
 29 24  1  0  0  0
  1  2  1  0  0  0
M  CHG 1   1   1
M  END
> <minimizedAffinity>
-7.94568

> <CNNscore>
0.6545735002

> <CNNaffinity>
6.6993837357

> <CNN_VS>
4.3852391243

> <CNNaffinity_variance>
0.1451891065

$$$$



 37 41  0  0  0  0  0  0  0  0999 V2000
    7.8031   -2.2725   22.7412 N   0  0  0  0  0  0  0  0  0  0  0  0
    8.2935   -1.5585   22.2731 H   0  0  0  0  0  0  0  0  0  0  0  0
    4.4402   -5.0393   27.6182 C   0  0  0  0  0  0  0  0  0  0  0  0
    4.2538   -6.3754   26.9624 O   0  0  0  0  0  0  0  0  0  0  0  0
    5.1873   -3.9515   26.9051 N   0  0  0  0  0  0  0  0  0  0  0  0
    5.3737   -2.6154   27.5609 C   0  0  0  0  0  0  0  0  0  0  0  0
    6.1208   -1.5276   26.8478 C   0  0  0  0  0  0  0  0  0  0  0  0
    6.6816   -1.7759   25.4790 C   0  0  0  0  0  0  0  0  0  0  0  0
    6.4952   -3.1119   24.8232 C   0  0  0  0  0  0  0  0  0  0  0  0
    5.7481   -4.1998   25.5363 C   0  0  0  0  0  0  0  0  0  0  0  0
    5.5618   -5.5359   24.8804 C   0  0  0  0  0  0  0  0  0  0  0  0
    6.1225   -5.7842   23.5115 C   0  0  0  0  0  0  0  0  0  0  0  0
    6.8697   -4.6964   22.7984 C   0  0  0  0  0  0  0  0  0  0  0  0
    7.0560   -3.3603   23.4542 C   0  0  0  0  0  0  0  0  0  0  0  0
    2.9957   -5.8166   29.6329 C   0  0  0  0  0  0  0  0  0  0  0  0
    3.8794   -4.7910   28.9871 C   0  0  0  0  0  0  0  0  0  0  0  0
    7.0528   -1.1406   22.1039 C   0  0  0  0  0  0  0  0  0  0  0  0
    7.5924    0.2566   22.1846 O   0  0  0  0  0  0  0  0  0  0  0  0
    5.7628   -1.4061   21.3860 C   0  0  0  0  0  0  0  0  0  0  0  0
    5.3947   -0.5937   20.1800 C   0  0  0  0  0  0  0  0  0  0  0  0
    5.8953   -0.9949   18.8241 C   0  0  0  0  0  0  0  0  0  0  0  0
    5.5272   -0.1825   17.6181 N   0  0  0  0  0  0  0  0  0  0  0  0
    4.6585    1.0311   17.7679 C   0  0  0  0  0  0  0  0  0  0  0  0
    4.1579    1.4324   19.1238 C   0  0  0  0  0  0  0  0  0  0  0  0
    3.2892    2.6460   19.2737 C   0  0  0  0  0  0  0  0  0  0  0  0
    2.7886    3.0472   20.6296 C   0  0  0  0  0  0  0  0  0  0  0  0
    3.1567    2.2348   21.8356 C   0  0  0  0  0  0  0  0  0  0  0  0
    4.0254    1.0211   21.6858 C   0  0  0  0  0  0  0  0  0  0  0  0
    4.5260    0.6199   20.3299 C   0  0  0  0  0  0  0  0  0  0  0  0
    9.3005   -2.3165   22.6653 C   0  0  0  0  0  0  0  0  0  0  0  0
   10.1034   -2.6629   23.8840 C   0  0  0  0  0  0  0  0  0  0  0  0
    9.6085   -3.7122   24.8349 C   0  0  0  0  0  0  0  0  0  0  0  0
   10.4114   -4.0587   26.0536 C   0  0  0  0  0  0  0  0  0  0  0  0
   11.7092   -3.3558   26.3216 C   0  0  0  0  0  0  0  0  0  0  0  0
   12.2040   -2.3065   25.3707 C   0  0  0  0  0  0  0  0  0  0  0  0
   13.5018   -1.6036   25.6387 Cl  0  0  0  0  0  0  0  0  0  0  0  0
   11.4012   -1.9601   24.1520 C   0  0  0  0  0  0  0  0  0  0  0  0
 15 16  2  0  0  0
 16  3  1  0  0  0
  3  4  2  0  0  0
  3  5  1  0  0  0
  5  6  1  0  0  0
  6  7  1  0  0  0
  7  8  1  0  0  0
  8  9  1  0  0  0
  9 10  2  0  0  0
 10 11  1  0  0  0
 11 12  2  0  0  0
 12 13  1  0  0  0
 13 14  2  0  0  0
 14  1  1  0  0  0
  1 30  1  0  0  0
 30 31  1  0  0  0
 31 32  2  0  0  0
 32 33  1  0  0  0
 33 34  2  0  0  0
 34 35  1  0  0  0
 35 36  1  0  0  0
 35 37  2  0  0  0
  1 17  1  0  0  0
 17 18  2  0  0  0
 17 19  1  0  0  0
 19 20  1  0  0  0
 20 21  2  0  0  0
 21 22  1  0  0  0
 22 23  2  0  0  0
 23 24  1  0  0  0
 24 25  2  0  0  0
 25 26  1  0  0  0
 26 27  2  0  0  0
 27 28  1  0  0  0
 28 29  2  0  0  0
 10  5  1  0  0  0
 37 31  1  0  0  0
 29 20  1  0  0  0
 14  9  1  0  0  0
 29 24  1  0  0  0
  1  2  1  0  0  0
M  CHG 1   1   1
M  END
> <minimizedAffinity>
-8.35001

> <CNNscore>
0.6504080296

> <CNNaffinity>
6.7437272072

> <CNN_VS>
4.3861742020

> <CNNaffinity_variance>
0.2308182269

$$$$



 37 41  0  0  0  0  0  0  0  0999 V2000
    7.5126   -0.9977   24.5983 N   0  0  0  0  0  0  0  0  0  0  0  0
    7.8367   -0.0832   24.7655 H   0  0  0  0  0  0  0  0  0  0  0  0
    3.9484   -6.3819   25.6264 C   0  0  0  0  0  0  0  0  0  0  0  0
    4.4960   -7.1731   24.4757 O   0  0  0  0  0  0  0  0  0  0  0  0
    4.4422   -4.9886   25.8811 N   0  0  0  0  0  0  0  0  0  0  0  0
    3.8946   -4.1975   27.0318 C   0  0  0  0  0  0  0  0  0  0  0  0
    4.3884   -2.8042   27.2865 C   0  0  0  0  0  0  0  0  0  0  0  0
    5.4298   -2.2020   26.3905 C   0  0  0  0  0  0  0  0  0  0  0  0
    5.9773   -2.9931   25.2398 C   0  0  0  0  0  0  0  0  0  0  0  0
    5.4836   -4.3865   24.9851 C   0  0  0  0  0  0  0  0  0  0  0  0
    6.0312   -5.1776   23.8343 C   0  0  0  0  0  0  0  0  0  0  0  0
    7.0725   -4.5754   22.9382 C   0  0  0  0  0  0  0  0  0  0  0  0
    7.5663   -3.1821   23.1929 C   0  0  0  0  0  0  0  0  0  0  0  0
    7.0188   -2.3910   24.3436 C   0  0  0  0  0  0  0  0  0  0  0  0
    1.4866   -6.5081   26.4470 C   0  0  0  0  0  0  0  0  0  0  0  0
    2.9070   -6.9841   26.5224 C   0  0  0  0  0  0  0  0  0  0  0  0
    6.9924    0.1443   23.7765 C   0  0  0  0  0  0  0  0  0  0  0  0
    5.7090    0.8201   24.1588 O   0  0  0  0  0  0  0  0  0  0  0  0
    7.7557    0.6105   22.5723 C   0  0  0  0  0  0  0  0  0  0  0  0
    9.0667    1.3191   22.7434 C   0  0  0  0  0  0  0  0  0  0  0  0
    9.0917    2.7909   23.0318 C   0  0  0  0  0  0  0  0  0  0  0  0
   10.4027    3.4994   23.2029 N   0  0  0  0  0  0  0  0  0  0  0  0
   11.6887    2.7362   23.0855 C   0  0  0  0  0  0  0  0  0  0  0  0
   11.6636    1.2644   22.7971 C   0  0  0  0  0  0  0  0  0  0  0  0
   12.9496    0.5011   22.6798 C   0  0  0  0  0  0  0  0  0  0  0  0
   12.9245   -0.9707   22.3914 C   0  0  0  0  0  0  0  0  0  0  0  0
   11.6136   -1.6792   22.2203 C   0  0  0  0  0  0  0  0  0  0  0  0
   10.3276   -0.9160   22.3377 C   0  0  0  0  0  0  0  0  0  0  0  0
   10.3526    0.5558   22.6261 C   0  0  0  0  0  0  0  0  0  0  0  0
    8.5265   -0.7464   25.6748 C   0  0  0  0  0  0  0  0  0  0  0  0
    9.6600   -1.7078   25.8768 C   0  0  0  0  0  0  0  0  0  0  0  0
    9.3773   -3.1320   26.2536 C   0  0  0  0  0  0  0  0  0  0  0  0
   10.5108   -4.0934   26.4556 C   0  0  0  0  0  0  0  0  0  0  0  0
   11.9270   -3.6307   26.2806 C   0  0  0  0  0  0  0  0  0  0  0  0
   12.2095   -2.2066   25.9038 C   0  0  0  0  0  0  0  0  0  0  0  0
   13.6257   -1.7439   25.7289 Cl  0  0  0  0  0  0  0  0  0  0  0  0
   11.0760   -1.2451   25.7019 C   0  0  0  0  0  0  0  0  0  0  0  0
 15 16  2  0  0  0
 16  3  1  0  0  0
  3  4  2  0  0  0
  3  5  1  0  0  0
  5  6  1  0  0  0
  6  7  1  0  0  0
  7  8  1  0  0  0
  8  9  1  0  0  0
  9 10  2  0  0  0
 10 11  1  0  0  0
 11 12  2  0  0  0
 12 13  1  0  0  0
 13 14  2  0  0  0
 14  1  1  0  0  0
  1 30  1  0  0  0
 30 31  1  0  0  0
 31 32  2  0  0  0
 32 33  1  0  0  0
 33 34  2  0  0  0
 34 35  1  0  0  0
 35 36  1  0  0  0
 35 37  2  0  0  0
  1 17  1  0  0  0
 17 18  2  0  0  0
 17 19  1  0  0  0
 19 20  1  0  0  0
 20 21  2  0  0  0
 21 22  1  0  0  0
 22 23  2  0  0  0
 23 24  1  0  0  0
 24 25  2  0  0  0
 25 26  1  0  0  0
 26 27  2  0  0  0
 27 28  1  0  0  0
 28 29  2  0  0  0
 10  5  1  0  0  0
 37 31  1  0  0  0
 29 20  1  0  0  0
 14  9  1  0  0  0
 29 24  1  0  0  0
  1  2  1  0  0  0
M  CHG 1   1   1
M  END
> <minimizedAffinity>
-7.62890

> <CNNscore>
0.5170914531

> <CNNaffinity>
6.9471130371

> <CNN_VS>
3.5922927856

> <CNNaffinity_variance>
0.2217783630

$$$$



 37 41  0  0  0  0  0  0  0  0999 V2000
    8.1477    0.3177   23.3185 N   0  0  0  0  0  0  0  0  0  0  0  0
    8.2541   -0.6610   23.3110 H   0  0  0  0  0  0  0  0  0  0  0  0
   10.0661    6.5636   23.0755 C   0  0  0  0  0  0  0  0  0  0  0  0
    8.7017    7.1686   23.2254 O   0  0  0  0  0  0  0  0  0  0  0  0
   10.2282    5.0724   23.0641 N   0  0  0  0  0  0  0  0  0  0  0  0
   11.5925    4.4674   22.9142 C   0  0  0  0  0  0  0  0  0  0  0  0
   11.7546    2.9762   22.9028 C   0  0  0  0  0  0  0  0  0  0  0  0
   10.5523    2.0901   23.0413 C   0  0  0  0  0  0  0  0  0  0  0  0
    9.1880    2.6951   23.1913 C   0  0  0  0  0  0  0  0  0  0  0  0
    9.0259    4.1862   23.2027 C   0  0  0  0  0  0  0  0  0  0  0  0
    7.6615    4.7912   23.3526 C   0  0  0  0  0  0  0  0  0  0  0  0
    6.4592    3.9050   23.4912 C   0  0  0  0  0  0  0  0  0  0  0  0
    6.6213    2.4139   23.4798 C   0  0  0  0  0  0  0  0  0  0  0  0
    7.9856    1.8089   23.3299 C   0  0  0  0  0  0  0  0  0  0  0  0
   12.0571    7.4497   21.6610 C   0  0  0  0  0  0  0  0  0  0  0  0
   11.2683    7.4497   22.9369 C   0  0  0  0  0  0  0  0  0  0  0  0
    7.8307   -0.4617   22.0767 C   0  0  0  0  0  0  0  0  0  0  0  0
    8.9383   -1.0796   21.2758 O   0  0  0  0  0  0  0  0  0  0  0  0
    6.4061   -0.6232   21.6358 C   0  0  0  0  0  0  0  0  0  0  0  0
    5.9417    0.0041   20.3549 C   0  0  0  0  0  0  0  0  0  0  0  0
    6.7269   -0.1979   19.0929 C   0  0  0  0  0  0  0  0  0  0  0  0
    6.2625    0.4295   17.8121 N   0  0  0  0  0  0  0  0  0  0  0  0
    5.0128    1.2590   17.7931 C   0  0  0  0  0  0  0  0  0  0  0  0
    4.2275    1.4610   19.0551 C   0  0  0  0  0  0  0  0  0  0  0  0
    2.9778    2.2904   19.0362 C   0  0  0  0  0  0  0  0  0  0  0  0
    2.1926    2.4924   20.2982 C   0  0  0  0  0  0  0  0  0  0  0  0
    2.6570    1.8650   21.5791 C   0  0  0  0  0  0  0  0  0  0  0  0
    3.9067    1.0356   21.5980 C   0  0  0  0  0  0  0  0  0  0  0  0
    4.6920    0.8335   20.3360 C   0  0  0  0  0  0  0  0  0  0  0  0
    8.6268   -0.3940   24.5488 C   0  0  0  0  0  0  0  0  0  0  0  0
   10.0506   -0.8568   24.6411 C   0  0  0  0  0  0  0  0  0  0  0  0
   10.6350   -1.2245   25.9728 C   0  0  0  0  0  0  0  0  0  0  0  0
   12.0588   -1.6873   26.0651 C   0  0  0  0  0  0  0  0  0  0  0  0
   12.8983   -1.7824   24.8256 C   0  0  0  0  0  0  0  0  0  0  0  0
   12.3140   -1.4147   23.4939 C   0  0  0  0  0  0  0  0  0  0  0  0
   13.1535   -1.5097   22.2544 Cl  0  0  0  0  0  0  0  0  0  0  0  0
   10.8902   -0.9519   23.4017 C   0  0  0  0  0  0  0  0  0  0  0  0
 15 16  2  0  0  0
 16  3  1  0  0  0
  3  4  2  0  0  0
  3  5  1  0  0  0
  5  6  1  0  0  0
  6  7  1  0  0  0
  7  8  1  0  0  0
  8  9  1  0  0  0
  9 10  2  0  0  0
 10 11  1  0  0  0
 11 12  2  0  0  0
 12 13  1  0  0  0
 13 14  2  0  0  0
 14  1  1  0  0  0
  1 30  1  0  0  0
 30 31  1  0  0  0
 31 32  2  0  0  0
 32 33  1  0  0  0
 33 34  2  0  0  0
 34 35  1  0  0  0
 35 36  1  0  0  0
 35 37  2  0  0  0
  1 17  1  0  0  0
 17 18  2  0  0  0
 17 19  1  0  0  0
 19 20  1  0  0  0
 20 21  2  0  0  0
 21 22  1  0  0  0
 22 23  2  0  0  0
 23 24  1  0  0  0
 24 25  2  0  0  0
 25 26  1  0  0  0
 26 27  2  0  0  0
 27 28  1  0  0  0
 28 29  2  0  0  0
 10  5  1  0  0  0
 37 31  1  0  0  0
 29 20  1  0  0  0
 14  9  1  0  0  0
 29 24  1  0  0  0
  1  2  1  0  0  0
M  CHG 1   1   1
M  END
> <minimizedAffinity>
-8.85182

> <CNNscore>
0.4943844080

> <CNNaffinity>
6.8285751343

> <CNN_VS>
3.3759410381

> <CNNaffinity_variance>
0.4511225224

$$$$



 37 41  0  0  0  0  0  0  0  0999 V2000
    8.9636   -0.7254   23.8626 N   0  0  0  0  0  0  0  0  0  0  0  0
    8.2893   -1.3840   24.1468 H   0  0  0  0  0  0  0  0  0  0  0  0
   11.3388    5.1980   22.4408 C   0  0  0  0  0  0  0  0  0  0  0  0
   12.7197    4.7451   22.0695 O   0  0  0  0  0  0  0  0  0  0  0  0
   10.3114    4.1945   22.8737 N   0  0  0  0  0  0  0  0  0  0  0  0
    8.9305    4.6475   23.2450 C   0  0  0  0  0  0  0  0  0  0  0  0
    7.9031    3.6440   23.6779 C   0  0  0  0  0  0  0  0  0  0  0  0
    8.2566    2.1875   23.7395 C   0  0  0  0  0  0  0  0  0  0  0  0
    9.6375    1.7346   23.3682 C   0  0  0  0  0  0  0  0  0  0  0  0
   10.6649    2.7381   22.9353 C   0  0  0  0  0  0  0  0  0  0  0  0
   12.0459    2.2851   22.5639 C   0  0  0  0  0  0  0  0  0  0  0  0
   12.3993    0.8287   22.6255 C   0  0  0  0  0  0  0  0  0  0  0  0
   11.3719   -0.1748   23.0584 C   0  0  0  0  0  0  0  0  0  0  0  0
    9.9910    0.2781   23.4297 C   0  0  0  0  0  0  0  0  0  0  0  0
   10.8557    7.4489   23.6449 C   0  0  0  0  0  0  0  0  0  0  0  0
   10.9854    6.6545   22.3792 C   0  0  0  0  0  0  0  0  0  0  0  0
    8.0159   -1.3098   22.8574 C   0  0  0  0  0  0  0  0  0  0  0  0
    7.4750   -2.6950   23.0536 O   0  0  0  0  0  0  0  0  0  0  0  0
    7.6092   -0.5089   21.6561 C   0  0  0  0  0  0  0  0  0  0  0  0
    6.2380    0.0951   21.5866 C   0  0  0  0  0  0  0  0  0  0  0  0
    5.4395    0.2894   22.8414 C   0  0  0  0  0  0  0  0  0  0  0  0
    4.0682    0.8934   22.7719 N   0  0  0  0  0  0  0  0  0  0  0  0
    3.4955    1.3032   21.4474 C   0  0  0  0  0  0  0  0  0  0  0  0
    4.2940    1.1089   20.1926 C   0  0  0  0  0  0  0  0  0  0  0  0
    3.7212    1.5186   18.8682 C   0  0  0  0  0  0  0  0  0  0  0  0
    4.5197    1.3243   17.6133 C   0  0  0  0  0  0  0  0  0  0  0  0
    5.8909    0.7203   17.6829 C   0  0  0  0  0  0  0  0  0  0  0  0
    6.4637    0.3105   19.0073 C   0  0  0  0  0  0  0  0  0  0  0  0
    5.6652    0.5048   20.2622 C   0  0  0  0  0  0  0  0  0  0  0  0
    8.8839   -1.1445   25.3007 C   0  0  0  0  0  0  0  0  0  0  0  0
    9.8805   -2.1193   25.8542 C   0  0  0  0  0  0  0  0  0  0  0  0
    9.4099   -3.3977   26.4824 C   0  0  0  0  0  0  0  0  0  0  0  0
   10.4066   -4.3726   27.0358 C   0  0  0  0  0  0  0  0  0  0  0  0
   11.8737   -4.0691   26.9611 C   0  0  0  0  0  0  0  0  0  0  0  0
   12.3442   -2.7909   26.3330 C   0  0  0  0  0  0  0  0  0  0  0  0
   13.8113   -2.4874   26.2582 Cl  0  0  0  0  0  0  0  0  0  0  0  0
   11.3475   -1.8160   25.7795 C   0  0  0  0  0  0  0  0  0  0  0  0
 15 16  2  0  0  0
 16  3  1  0  0  0
  3  4  2  0  0  0
  3  5  1  0  0  0
  5  6  1  0  0  0
  6  7  1  0  0  0
  7  8  1  0  0  0
  8  9  1  0  0  0
  9 10  2  0  0  0
 10 11  1  0  0  0
 11 12  2  0  0  0
 12 13  1  0  0  0
 13 14  2  0  0  0
 14  1  1  0  0  0
  1 30  1  0  0  0
 30 31  1  0  0  0
 31 32  2  0  0  0
 32 33  1  0  0  0
 33 34  2  0  0  0
 34 35  1  0  0  0
 35 36  1  0  0  0
 35 37  2  0  0  0
  1 17  1  0  0  0
 17 18  2  0  0  0
 17 19  1  0  0  0
 19 20  1  0  0  0
 20 21  2  0  0  0
 21 22  1  0  0  0
 22 23  2  0  0  0
 23 24  1  0  0  0
 24 25  2  0  0  0
 25 26  1  0  0  0
 26 27  2  0  0  0
 27 28  1  0  0  0
 28 29  2  0  0  0
 10  5  1  0  0  0
 37 31  1  0  0  0
 29 20  1  0  0  0
 14  9  1  0  0  0
 29 24  1  0  0  0
  1  2  1  0  0  0
M  CHG 1   1   1
M  END
> <minimizedAffinity>
-8.89330

> <CNNscore>
0.4593396485

> <CNNaffinity>
7.0751028061

> <CNN_VS>
3.2498753071

> <CNNaffinity_variance>
0.0229242295

$$$$



 37 41  0  0  0  0  0  0  0  0999 V2000
    7.5654   -1.2451   24.0053 N   0  0  0  0  0  0  0  0  0  0  0  0
    8.1090   -2.0499   24.1662 H   0  0  0  0  0  0  0  0  0  0  0  0
    3.5517    2.7231   20.7048 C   0  0  0  0  0  0  0  0  0  0  0  0
    3.4877    3.8047   21.7421 O   0  0  0  0  0  0  0  0  0  0  0  0
    4.3800    1.4969   20.9499 N   0  0  0  0  0  0  0  0  0  0  0  0
    4.4440    0.4153   19.9127 C   0  0  0  0  0  0  0  0  0  0  0  0
    5.2723   -0.8110   20.1578 C   0  0  0  0  0  0  0  0  0  0  0  0
    6.0366   -0.9557   21.4403 C   0  0  0  0  0  0  0  0  0  0  0  0
    5.9727    0.1259   22.4776 C   0  0  0  0  0  0  0  0  0  0  0  0
    5.1443    1.3522   22.2324 C   0  0  0  0  0  0  0  0  0  0  0  0
    5.0804    2.4338   23.2698 C   0  0  0  0  0  0  0  0  0  0  0  0
    5.8448    2.2891   24.5523 C   0  0  0  0  0  0  0  0  0  0  0  0
    6.6731    1.0628   24.7974 C   0  0  0  0  0  0  0  0  0  0  0  0
    6.7370   -0.0188   23.7602 C   0  0  0  0  0  0  0  0  0  0  0  0
    1.2937    2.7299   19.4197 C   0  0  0  0  0  0  0  0  0  0  0  0
    2.7873    2.8678   19.4223 C   0  0  0  0  0  0  0  0  0  0  0  0
    8.1060   -2.0290   22.8463 C   0  0  0  0  0  0  0  0  0  0  0  0
    7.8010   -3.4925   22.7233 O   0  0  0  0  0  0  0  0  0  0  0  0
    8.9516   -1.3494   21.8104 C   0  0  0  0  0  0  0  0  0  0  0  0
   10.2842   -0.7745   22.1894 C   0  0  0  0  0  0  0  0  0  0  0  0
   11.4826   -1.6695   22.3016 C   0  0  0  0  0  0  0  0  0  0  0  0
   12.8152   -1.0946   22.6806 N   0  0  0  0  0  0  0  0  0  0  0  0
   12.9494    0.3754   22.9472 C   0  0  0  0  0  0  0  0  0  0  0  0
   11.7510    1.2705   22.8350 C   0  0  0  0  0  0  0  0  0  0  0  0
   11.8851    2.7404   23.1016 C   0  0  0  0  0  0  0  0  0  0  0  0
   10.6866    3.6355   22.9893 C   0  0  0  0  0  0  0  0  0  0  0  0
    9.3541    3.0606   22.6104 C   0  0  0  0  0  0  0  0  0  0  0  0
    9.2199    1.5905   22.3437 C   0  0  0  0  0  0  0  0  0  0  0  0
   10.4183    0.6955   22.4560 C   0  0  0  0  0  0  0  0  0  0  0  0
    7.8531   -1.6874   25.4094 C   0  0  0  0  0  0  0  0  0  0  0  0
    9.1602   -2.3473   25.7349 C   0  0  0  0  0  0  0  0  0  0  0  0
    9.2005   -3.8104   26.0631 C   0  0  0  0  0  0  0  0  0  0  0  0
   10.5076   -4.4703   26.3886 C   0  0  0  0  0  0  0  0  0  0  0  0
   11.7745   -3.6670   26.3860 C   0  0  0  0  0  0  0  0  0  0  0  0
   11.7341   -2.2039   26.0579 C   0  0  0  0  0  0  0  0  0  0  0  0
   13.0009   -1.4006   26.0553 Cl  0  0  0  0  0  0  0  0  0  0  0  0
   10.4270   -1.5440   25.7324 C   0  0  0  0  0  0  0  0  0  0  0  0
 15 16  2  0  0  0
 16  3  1  0  0  0
  3  4  2  0  0  0
  3  5  1  0  0  0
  5  6  1  0  0  0
  6  7  1  0  0  0
  7  8  1  0  0  0
  8  9  1  0  0  0
  9 10  2  0  0  0
 10 11  1  0  0  0
 11 12  2  0  0  0
 12 13  1  0  0  0
 13 14  2  0  0  0
 14  1  1  0  0  0
  1 30  1  0  0  0
 30 31  1  0  0  0
 31 32  2  0  0  0
 32 33  1  0  0  0
 33 34  2  0  0  0
 34 35  1  0  0  0
 35 36  1  0  0  0
 35 37  2  0  0  0
  1 17  1  0  0  0
 17 18  2  0  0  0
 17 19  1  0  0  0
 19 20  1  0  0  0
 20 21  2  0  0  0
 21 22  1  0  0  0
 22 23  2  0  0  0
 23 24  1  0  0  0
 24 25  2  0  0  0
 25 26  1  0  0  0
 26 27  2  0  0  0
 27 28  1  0  0  0
 28 29  2  0  0  0
 10  5  1  0  0  0
 37 31  1  0  0  0
 29 20  1  0  0  0
 14  9  1  0  0  0
 29 24  1  0  0  0
  1  2  1  0  0  0
M  CHG 1   1   1
M  END
> <minimizedAffinity>
-8.11584

> <CNNscore>
0.4481006861

> <CNNaffinity>
6.9050698280

> <CNN_VS>
3.0941665173

> <CNNaffinity_variance>
0.0701078176

$$$$



 37 41  0  0  0  0  0  0  0  0999 V2000
    7.8805   -1.8011   22.5245 N   0  0  0  0  0  0  0  0  0  0  0  0
    8.3748   -1.1849   21.9369 H   0  0  0  0  0  0  0  0  0  0  0  0
    4.6995   -3.6974   27.9129 C   0  0  0  0  0  0  0  0  0  0  0  0
    4.4073   -5.0961   27.4569 O   0  0  0  0  0  0  0  0  0  0  0  0
    5.4526   -2.7586   27.0177 N   0  0  0  0  0  0  0  0  0  0  0  0
    5.7449   -1.3598   27.4737 C   0  0  0  0  0  0  0  0  0  0  0  0
    6.4980   -0.4211   26.5784 C   0  0  0  0  0  0  0  0  0  0  0  0
    6.9589   -0.8810   25.2271 C   0  0  0  0  0  0  0  0  0  0  0  0
    6.6666   -2.2798   24.7711 C   0  0  0  0  0  0  0  0  0  0  0  0
    5.9135   -3.2186   25.6664 C   0  0  0  0  0  0  0  0  0  0  0  0
    5.6212   -4.6174   25.2103 C   0  0  0  0  0  0  0  0  0  0  0  0
    6.0820   -5.0774   23.8590 C   0  0  0  0  0  0  0  0  0  0  0  0
    6.8351   -4.1386   22.9638 C   0  0  0  0  0  0  0  0  0  0  0  0
    7.1274   -2.7399   23.4198 C   0  0  0  0  0  0  0  0  0  0  0  0
    5.2445   -2.8877   30.3207 C   0  0  0  0  0  0  0  0  0  0  0  0
    4.2387   -3.2374   29.2642 C   0  0  0  0  0  0  0  0  0  0  0  0
    7.1841   -0.6151   21.9257 C   0  0  0  0  0  0  0  0  0  0  0  0
    7.8981    0.6999   21.8211 O   0  0  0  0  0  0  0  0  0  0  0  0
    5.7737   -0.7441   21.4316 C   0  0  0  0  0  0  0  0  0  0  0  0
    5.3542   -0.0485   20.1707 C   0  0  0  0  0  0  0  0  0  0  0  0
    6.0414   -0.3647   18.8754 C   0  0  0  0  0  0  0  0  0  0  0  0
    5.6219    0.3309   17.6144 N   0  0  0  0  0  0  0  0  0  0  0  0
    4.5151    1.3428   17.6487 C   0  0  0  0  0  0  0  0  0  0  0  0
    3.8278    1.6590   18.9440 C   0  0  0  0  0  0  0  0  0  0  0  0
    2.7211    2.6708   18.9783 C   0  0  0  0  0  0  0  0  0  0  0  0
    2.0338    2.9870   20.2735 C   0  0  0  0  0  0  0  0  0  0  0  0
    2.4533    2.2914   21.5345 C   0  0  0  0  0  0  0  0  0  0  0  0
    3.5602    1.2795   21.5002 C   0  0  0  0  0  0  0  0  0  0  0  0
    4.2474    0.9633   20.2050 C   0  0  0  0  0  0  0  0  0  0  0  0
    9.3300   -2.0483   22.2279 C   0  0  0  0  0  0  0  0  0  0  0  0
   10.3690   -1.7569   23.2698 C   0  0  0  0  0  0  0  0  0  0  0  0
   11.1647   -0.4872   23.2009 C   0  0  0  0  0  0  0  0  0  0  0  0
   12.2038   -0.1958   24.2428 C   0  0  0  0  0  0  0  0  0  0  0  0
   12.4470   -1.1741   25.3536 C   0  0  0  0  0  0  0  0  0  0  0  0
   11.6513   -2.4437   25.4224 C   0  0  0  0  0  0  0  0  0  0  0  0
   11.8946   -3.4220   26.5332 Cl  0  0  0  0  0  0  0  0  0  0  0  0
   10.6123   -2.7351   24.3806 C   0  0  0  0  0  0  0  0  0  0  0  0
 15 16  2  0  0  0
 16  3  1  0  0  0
  3  4  2  0  0  0
  3  5  1  0  0  0
  5  6  1  0  0  0
  6  7  1  0  0  0
  7  8  1  0  0  0
  8  9  1  0  0  0
  9 10  2  0  0  0
 10 11  1  0  0  0
 11 12  2  0  0  0
 12 13  1  0  0  0
 13 14  2  0  0  0
 14  1  1  0  0  0
  1 30  1  0  0  0
 30 31  1  0  0  0
 31 32  2  0  0  0
 32 33  1  0  0  0
 33 34  2  0  0  0
 34 35  1  0  0  0
 35 36  1  0  0  0
 35 37  2  0  0  0
  1 17  1  0  0  0
 17 18  2  0  0  0
 17 19  1  0  0  0
 19 20  1  0  0  0
 20 21  2  0  0  0
 21 22  1  0  0  0
 22 23  2  0  0  0
 23 24  1  0  0  0
 24 25  2  0  0  0
 25 26  1  0  0  0
 26 27  2  0  0  0
 27 28  1  0  0  0
 28 29  2  0  0  0
 10  5  1  0  0  0
 37 31  1  0  0  0
 29 20  1  0  0  0
 14  9  1  0  0  0
 29 24  1  0  0  0
  1  2  1  0  0  0
M  CHG 1   1   1
M  END
> <minimizedAffinity>
-8.05186

> <CNNscore>
0.4374453723

> <CNNaffinity>
6.5500917435

> <CNN_VS>
2.8653073311

> <CNNaffinity_variance>
0.1500829011

$$$$
