


 34 39  0  0  0  0  0  0  0  0999 V2000
   -5.9068   -5.4959  -22.9202 C   0  0  0  0  0  0  0  0  0  0  0  0
   -6.4280   -4.1575  -22.4874 C   0  0  0  0  0  0  0  0  0  0  0  0
   -5.5849   -3.5491  -21.4062 C   0  0  0  0  0  0  0  0  0  0  0  0
   -6.1829   -2.2222  -21.0436 N   0  0  0  0  0  0  0  0  0  0  0  0
   -7.3956   -2.0105  -21.9007 C   0  0  0  0  0  0  0  0  0  0  0  0
   -8.2983   -0.8129  -21.8707 O   0  0  0  0  0  0  0  0  0  0  0  0
   -7.5471   -3.2066  -22.7931 C   0  0  0  0  0  0  0  0  0  0  0  0
   -8.6053   -2.1617  -22.9886 C   0  0  0  0  0  0  0  0  0  0  0  0
   -9.6860   -2.3703  -24.0076 N   0  0  0  0  0  0  0  0  0  0  0  0
   -9.7085   -3.6237  -24.8312 C   0  0  0  0  0  0  0  0  0  0  0  0
  -10.7893   -3.8323  -25.8503 O   0  0  0  0  0  0  0  0  0  0  0  0
   -8.6503   -4.6687  -24.6357 C   0  0  0  0  0  0  0  0  0  0  0  0
   -8.6728   -5.9222  -25.4593 C   0  0  0  0  0  0  0  0  0  0  0  0
   -7.6145   -6.9671  -25.2638 C   0  0  0  0  0  0  0  0  0  0  0  0
   -6.5338   -6.7585  -24.2447 C   0  0  0  0  0  0  0  0  0  0  0  0
   -5.4755   -7.8035  -24.0492 F   0  0  0  0  0  0  0  0  0  0  0  0
   -6.5113   -5.5050  -23.4211 C   0  0  0  0  0  0  0  0  0  0  0  0
   -7.5695   -4.4601  -23.6166 C   0  0  0  0  0  0  0  0  0  0  0  0
   -5.6601   -1.2734  -20.0060 C   0  0  0  0  0  0  0  0  0  0  0  0
   -6.1315   -1.3808  -18.5861 C   0  0  0  0  0  0  0  0  0  0  0  0
   -5.6087   -0.4320  -17.5485 N   0  0  0  0  0  0  0  0  0  0  0  0
   -4.6145    0.6240  -17.9309 C   0  0  0  0  0  0  0  0  0  0  0  0
   -4.1431    0.7314  -19.3509 C   0  0  0  0  0  0  0  0  0  0  0  0
   -3.1489    1.7875  -19.7333 C   0  0  0  0  0  0  0  0  0  0  0  0
   -2.6776    1.8948  -21.1533 C   0  0  0  0  0  0  0  0  0  0  0  0
   -3.2004    0.9461  -22.1908 C   0  0  0  0  0  0  0  0  0  0  0  0
   -4.1946   -0.1100  -21.8084 C   0  0  0  0  0  0  0  0  0  0  0  0
   -4.6659   -0.2173  -20.3885 C   0  0  0  0  0  0  0  0  0  0  0  0
  -10.7443   -1.3253  -24.2031 C   0  0  0  0  0  0  0  0  0  0  0  0
  -12.0763   -1.4715  -23.5290 C   0  0  0  0  0  0  0  0  0  0  0  0
  -13.2432   -0.5397  -23.6708 C   0  0  0  0  0  0  0  0  0  0  0  0
  -14.3633   -1.0675  -22.8242 O   0  0  0  0  0  0  0  0  0  0  0  0
  -13.8887   -2.3255  -22.1592 C   0  0  0  0  0  0  0  0  0  0  0  0
  -12.4753   -2.5752  -22.5948 N   0  0  0  0  0  0  0  0  0  0  0  0
  2  1  1  0  0  0
  2  3  1  0  0  0
  3  4  1  0  0  0
  4 19  1  0  0  0
 19 20  2  0  0  0
 20 21  1  0  0  0
 21 22  2  0  0  0
 22 23  1  0  0  0
 23 24  2  0  0  0
 24 25  1  0  0  0
 25 26  2  0  0  0
 26 27  1  0  0  0
 27 28  2  0  0  0
  4  5  1  0  0  0
  5  6  2  0  0  0
  5  7  1  0  0  0
  7  8  1  0  0  0
  8  9  1  0  0  0
  9 29  1  0  0  0
 29 30  1  0  0  0
 30 31  2  0  0  0
 31 32  1  0  0  0
 32 33  1  0  0  0
 33 34  2  0  0  0
  9 10  1  0  0  0
 10 11  2  0  0  0
 10 12  1  0  0  0
 12 13  2  0  0  0
 13 14  1  0  0  0
 14 15  2  0  0  0
 15 16  1  0  0  0
 15 17  1  0  0  0
 17 18  2  0  0  0
  7  2  1  0  0  0
 34 30  1  0  0  0
 18 12  1  0  0  0
 28 19  1  0  0  0
 18  7  1  0  0  0
 28 23  1  0  0  0
M  END
> <minimizedAffinity>
-8.95813

> <CNNscore>
0.6384717226

> <CNNaffinity>
6.5985631943

> <CNN_VS>
4.2129960060

> <CNNaffinity_variance>
0.1623605043

$$$$



 34 39  0  0  0  0  0  0  0  0999 V2000
   -9.5658   -2.4531  -23.6414 C   0  0  0  0  0  0  0  0  0  0  0  0
   -8.3121   -2.6784  -22.8491 C   0  0  0  0  0  0  0  0  0  0  0  0
   -8.0361   -1.5491  -21.9011 C   0  0  0  0  0  0  0  0  0  0  0  0
   -6.7709   -1.8651  -21.1597 N   0  0  0  0  0  0  0  0  0  0  0  0
   -6.2651   -3.1896  -21.6495 C   0  0  0  0  0  0  0  0  0  0  0  0
   -5.0246   -3.8887  -21.1780 O   0  0  0  0  0  0  0  0  0  0  0  0
   -7.2176   -3.6922  -22.6936 C   0  0  0  0  0  0  0  0  0  0  0  0
   -6.0616   -4.6108  -22.4295 C   0  0  0  0  0  0  0  0  0  0  0  0
   -5.9408   -5.9008  -23.1854 N   0  0  0  0  0  0  0  0  0  0  0  0
   -6.9760   -6.2722  -24.2054 C   0  0  0  0  0  0  0  0  0  0  0  0
   -6.8553   -7.5622  -24.9613 O   0  0  0  0  0  0  0  0  0  0  0  0
   -8.1321   -5.3536  -24.4695 C   0  0  0  0  0  0  0  0  0  0  0  0
   -9.1673   -5.7249  -25.4895 C   0  0  0  0  0  0  0  0  0  0  0  0
  -10.3233   -4.8063  -25.7536 C   0  0  0  0  0  0  0  0  0  0  0  0
  -10.4441   -3.5163  -24.9977 C   0  0  0  0  0  0  0  0  0  0  0  0
  -11.6002   -2.5977  -25.2618 F   0  0  0  0  0  0  0  0  0  0  0  0
   -9.4089   -3.1450  -23.9777 C   0  0  0  0  0  0  0  0  0  0  0  0
   -8.2529   -4.0636  -23.7136 C   0  0  0  0  0  0  0  0  0  0  0  0
   -6.1250   -1.0072  -20.1125 C   0  0  0  0  0  0  0  0  0  0  0  0
   -6.6654   -0.9971  -18.7133 C   0  0  0  0  0  0  0  0  0  0  0  0
   -6.0195   -0.1392  -17.6660 N   0  0  0  0  0  0  0  0  0  0  0  0
   -4.8331    0.7085  -18.0180 C   0  0  0  0  0  0  0  0  0  0  0  0
   -4.2927    0.6984  -19.4172 C   0  0  0  0  0  0  0  0  0  0  0  0
   -3.1063    1.5462  -19.7692 C   0  0  0  0  0  0  0  0  0  0  0  0
   -2.5660    1.5360  -21.1685 C   0  0  0  0  0  0  0  0  0  0  0  0
   -3.2119    0.6782  -22.2157 C   0  0  0  0  0  0  0  0  0  0  0  0
   -4.3983   -0.1696  -21.8637 C   0  0  0  0  0  0  0  0  0  0  0  0
   -4.9386   -0.1595  -20.4645 C   0  0  0  0  0  0  0  0  0  0  0  0
   -4.7848   -6.8194  -22.9213 C   0  0  0  0  0  0  0  0  0  0  0  0
   -3.5688   -6.7660  -23.7979 C   0  0  0  0  0  0  0  0  0  0  0  0
   -2.1723   -7.1330  -23.3918 C   0  0  0  0  0  0  0  0  0  0  0  0
   -1.2763   -6.9299  -24.5775 O   0  0  0  0  0  0  0  0  0  0  0  0
   -2.1190   -6.4374  -25.7165 C   0  0  0  0  0  0  0  0  0  0  0  0
   -3.5359   -6.3361  -25.2347 N   0  0  0  0  0  0  0  0  0  0  0  0
  2  1  1  0  0  0
  2  3  1  0  0  0
  3  4  1  0  0  0
  4 19  1  0  0  0
 19 20  2  0  0  0
 20 21  1  0  0  0
 21 22  2  0  0  0
 22 23  1  0  0  0
 23 24  2  0  0  0
 24 25  1  0  0  0
 25 26  2  0  0  0
 26 27  1  0  0  0
 27 28  2  0  0  0
  4  5  1  0  0  0
  5  6  2  0  0  0
  5  7  1  0  0  0
  7  8  1  0  0  0
  8  9  1  0  0  0
  9 29  1  0  0  0
 29 30  1  0  0  0
 30 31  2  0  0  0
 31 32  1  0  0  0
 32 33  1  0  0  0
 33 34  2  0  0  0
  9 10  1  0  0  0
 10 11  2  0  0  0
 10 12  1  0  0  0
 12 13  2  0  0  0
 13 14  1  0  0  0
 14 15  2  0  0  0
 15 16  1  0  0  0
 15 17  1  0  0  0
 17 18  2  0  0  0
  7  2  1  0  0  0
 34 30  1  0  0  0
 18 12  1  0  0  0
 28 19  1  0  0  0
 18  7  1  0  0  0
 28 23  1  0  0  0
M  END
> <minimizedAffinity>
-8.34784

> <CNNscore>
0.5327231884

> <CNNaffinity>
6.4704222679

> <CNN_VS>
3.4469439983

> <CNNaffinity_variance>
0.0917849094

$$$$



 34 39  0  0  0  0  0  0  0  0999 V2000
  -10.6314   -4.0638  -25.2426 C   0  0  0  0  0  0  0  0  0  0  0  0
  -10.1195   -2.8737  -24.4866 C   0  0  0  0  0  0  0  0  0  0  0  0
  -11.0392   -1.6946  -24.6052 C   0  0  0  0  0  0  0  0  0  0  0  0
  -10.4450   -0.5625  -23.8208 N   0  0  0  0  0  0  0  0  0  0  0  0
   -9.1581   -1.0419  -23.2174 C   0  0  0  0  0  0  0  0  0  0  0  0
   -8.2345   -0.2346  -22.3541 O   0  0  0  0  0  0  0  0  0  0  0  0
   -8.9569   -2.4703  -23.6289 C   0  0  0  0  0  0  0  0  0  0  0  0
   -7.8623   -1.9258  -22.7598 C   0  0  0  0  0  0  0  0  0  0  0  0
   -6.7022   -2.7977  -22.3802 N   0  0  0  0  0  0  0  0  0  0  0  0
   -6.6368   -4.2140  -22.8697 C   0  0  0  0  0  0  0  0  0  0  0  0
   -5.4767   -5.0859  -22.4902 O   0  0  0  0  0  0  0  0  0  0  0  0
   -7.7314   -4.7586  -23.7389 C   0  0  0  0  0  0  0  0  0  0  0  0
   -7.6660   -6.1749  -24.2284 C   0  0  0  0  0  0  0  0  0  0  0  0
   -8.7606   -6.7194  -25.0974 C   0  0  0  0  0  0  0  0  0  0  0  0
   -9.9206   -5.8475  -25.4770 C   0  0  0  0  0  0  0  0  0  0  0  0
  -11.0153   -6.3920  -26.3461 F   0  0  0  0  0  0  0  0  0  0  0  0
   -9.9861   -4.4312  -24.9875 C   0  0  0  0  0  0  0  0  0  0  0  0
   -8.8915   -3.8867  -24.1184 C   0  0  0  0  0  0  0  0  0  0  0  0
  -11.0342    0.8083  -23.6668 C   0  0  0  0  0  0  0  0  0  0  0  0
  -12.2758    1.0033  -22.8482 C   0  0  0  0  0  0  0  0  0  0  0  0
  -12.8650    2.3741  -22.6943 N   0  0  0  0  0  0  0  0  0  0  0  0
  -12.2125    3.5498  -23.3589 C   0  0  0  0  0  0  0  0  0  0  0  0
  -10.9708    3.3548  -24.1775 C   0  0  0  0  0  0  0  0  0  0  0  0
  -10.3183    4.5307  -24.8422 C   0  0  0  0  0  0  0  0  0  0  0  0
   -9.0766    4.3356  -25.6608 C   0  0  0  0  0  0  0  0  0  0  0  0
   -8.4875    2.9648  -25.8147 C   0  0  0  0  0  0  0  0  0  0  0  0
   -9.1400    1.7890  -25.1501 C   0  0  0  0  0  0  0  0  0  0  0  0
  -10.3816    1.9840  -24.3315 C   0  0  0  0  0  0  0  0  0  0  0  0
   -5.6076   -2.2532  -21.5111 C   0  0  0  0  0  0  0  0  0  0  0  0
   -5.9481   -1.5066  -20.2555 C   0  0  0  0  0  0  0  0  0  0  0  0
   -7.2755   -1.5156  -19.5569 C   0  0  0  0  0  0  0  0  0  0  0  0
   -7.1688   -0.6345  -18.3477 O   0  0  0  0  0  0  0  0  0  0  0  0
   -5.7755   -0.0809  -18.2989 C   0  0  0  0  0  0  0  0  0  0  0  0
   -5.0211   -0.6199  -19.4780 N   0  0  0  0  0  0  0  0  0  0  0  0
  2  1  1  0  0  0
  2  3  1  0  0  0
  3  4  1  0  0  0
  4 19  1  0  0  0
 19 20  2  0  0  0
 20 21  1  0  0  0
 21 22  2  0  0  0
 22 23  1  0  0  0
 23 24  2  0  0  0
 24 25  1  0  0  0
 25 26  2  0  0  0
 26 27  1  0  0  0
 27 28  2  0  0  0
  4  5  1  0  0  0
  5  6  2  0  0  0
  5  7  1  0  0  0
  7  8  1  0  0  0
  8  9  1  0  0  0
  9 29  1  0  0  0
 29 30  1  0  0  0
 30 31  2  0  0  0
 31 32  1  0  0  0
 32 33  1  0  0  0
 33 34  2  0  0  0
  9 10  1  0  0  0
 10 11  2  0  0  0
 10 12  1  0  0  0
 12 13  2  0  0  0
 13 14  1  0  0  0
 14 15  2  0  0  0
 15 16  1  0  0  0
 15 17  1  0  0  0
 17 18  2  0  0  0
  7  2  1  0  0  0
 34 30  1  0  0  0
 18 12  1  0  0  0
 28 19  1  0  0  0
 18  7  1  0  0  0
 28 23  1  0  0  0
M  END
> <minimizedAffinity>
-8.17709

> <CNNscore>
0.4964860976

> <CNNaffinity>
6.5277099609

> <CNN_VS>
3.2409172058

> <CNNaffinity_variance>
0.1081499904

$$$$



 34 39  0  0  0  0  0  0  0  0999 V2000
  -10.8533   -2.7121  -24.5342 C   0  0  0  0  0  0  0  0  0  0  0  0
  -10.4358   -1.4149  -23.9072 C   0  0  0  0  0  0  0  0  0  0  0  0
  -11.5127   -0.3747  -23.9978 C   0  0  0  0  0  0  0  0  0  0  0  0
  -11.0035    0.8776  -23.3479 N   0  0  0  0  0  0  0  0  0  0  0  0
   -9.6118    0.6113  -22.8556 C   0  0  0  0  0  0  0  0  0  0  0  0
   -8.7265    1.5901  -22.1427 O   0  0  0  0  0  0  0  0  0  0  0  0
   -9.2609   -0.8055  -23.2012 C   0  0  0  0  0  0  0  0  0  0  0  0
   -8.1710   -0.0644  -22.4851 C   0  0  0  0  0  0  0  0  0  0  0  0
   -6.8732   -0.7512  -22.1787 N   0  0  0  0  0  0  0  0  0  0  0  0
   -6.6652   -2.1791  -22.5883 C   0  0  0  0  0  0  0  0  0  0  0  0
   -5.3674   -2.8659  -22.2818 O   0  0  0  0  0  0  0  0  0  0  0  0
   -7.7552   -2.9203  -23.3044 C   0  0  0  0  0  0  0  0  0  0  0  0
   -7.5473   -4.3482  -23.7140 C   0  0  0  0  0  0  0  0  0  0  0  0
   -8.6372   -5.0893  -24.4301 C   0  0  0  0  0  0  0  0  0  0  0  0
   -9.9350   -4.4024  -24.7366 C   0  0  0  0  0  0  0  0  0  0  0  0
  -11.0250   -5.1436  -25.4527 F   0  0  0  0  0  0  0  0  0  0  0  0
  -10.1429   -2.9746  -24.3269 C   0  0  0  0  0  0  0  0  0  0  0  0
   -9.0530   -2.2335  -23.6109 C   0  0  0  0  0  0  0  0  0  0  0  0
  -11.7541    2.1693  -23.2138 C   0  0  0  0  0  0  0  0  0  0  0  0
  -12.8899    2.2791  -22.2403 C   0  0  0  0  0  0  0  0  0  0  0  0
  -13.6405    3.5709  -22.1062 N   0  0  0  0  0  0  0  0  0  0  0  0
  -13.2552    4.7528  -22.9456 C   0  0  0  0  0  0  0  0  0  0  0  0
  -12.1194    4.6429  -23.9192 C   0  0  0  0  0  0  0  0  0  0  0  0
  -11.7341    5.8249  -24.7587 C   0  0  0  0  0  0  0  0  0  0  0  0
  -10.5983    5.7149  -25.7322 C   0  0  0  0  0  0  0  0  0  0  0  0
   -9.8477    4.4232  -25.8662 C   0  0  0  0  0  0  0  0  0  0  0  0
  -10.2330    3.2413  -25.0268 C   0  0  0  0  0  0  0  0  0  0  0  0
  -11.3688    3.3512  -24.0533 C   0  0  0  0  0  0  0  0  0  0  0  0
   -5.7832   -0.0100  -21.4625 C   0  0  0  0  0  0  0  0  0  0  0  0
   -5.6242   -0.1598  -19.9786 C   0  0  0  0  0  0  0  0  0  0  0  0
   -6.0763   -1.3306  -19.1571 C   0  0  0  0  0  0  0  0  0  0  0  0
   -5.7167   -1.0596  -17.7264 O   0  0  0  0  0  0  0  0  0  0  0  0
   -5.0422    0.2788  -17.6635 C   0  0  0  0  0  0  0  0  0  0  0  0
   -4.9850    0.8348  -19.0554 N   0  0  0  0  0  0  0  0  0  0  0  0
  2  1  1  0  0  0
  2  3  1  0  0  0
  3  4  1  0  0  0
  4 19  1  0  0  0
 19 20  2  0  0  0
 20 21  1  0  0  0
 21 22  2  0  0  0
 22 23  1  0  0  0
 23 24  2  0  0  0
 24 25  1  0  0  0
 25 26  2  0  0  0
 26 27  1  0  0  0
 27 28  2  0  0  0
  4  5  1  0  0  0
  5  6  2  0  0  0
  5  7  1  0  0  0
  7  8  1  0  0  0
  8  9  1  0  0  0
  9 29  1  0  0  0
 29 30  1  0  0  0
 30 31  2  0  0  0
 31 32  1  0  0  0
 32 33  1  0  0  0
 33 34  2  0  0  0
  9 10  1  0  0  0
 10 11  2  0  0  0
 10 12  1  0  0  0
 12 13  2  0  0  0
 13 14  1  0  0  0
 14 15  2  0  0  0
 15 16  1  0  0  0
 15 17  1  0  0  0
 17 18  2  0  0  0
  7  2  1  0  0  0
 34 30  1  0  0  0
 18 12  1  0  0  0
 28 19  1  0  0  0
 18  7  1  0  0  0
 28 23  1  0  0  0
M  END
> <minimizedAffinity>
-8.30465

> <CNNscore>
0.4857176542

> <CNNaffinity>
6.4392266273

> <CNN_VS>
3.1276459694

> <CNNaffinity_variance>
0.0664434507

$$$$



 34 39  0  0  0  0  0  0  0  0999 V2000
   -7.2601    0.3394  -21.3913 C   0  0  0  0  0  0  0  0  0  0  0  0
   -8.4939    0.1921  -22.2316 C   0  0  0  0  0  0  0  0  0  0  0  0
   -9.2488    1.4826  -22.3525 C   0  0  0  0  0  0  0  0  0  0  0  0
  -10.4575    1.2344  -23.2054 N   0  0  0  0  0  0  0  0  0  0  0  0
  -10.4496   -0.2096  -23.6115 C   0  0  0  0  0  0  0  0  0  0  0  0
  -11.4753   -0.8898  -24.4690 O   0  0  0  0  0  0  0  0  0  0  0  0
   -9.2360   -0.8538  -23.0098 C   0  0  0  0  0  0  0  0  0  0  0  0
  -10.0823   -1.7875  -23.8233 C   0  0  0  0  0  0  0  0  0  0  0  0
   -9.6812   -3.2251  -23.9733 N   0  0  0  0  0  0  0  0  0  0  0  0
   -8.4340   -3.7290  -23.3097 C   0  0  0  0  0  0  0  0  0  0  0  0
   -8.0329   -5.1666  -23.4597 O   0  0  0  0  0  0  0  0  0  0  0  0
   -7.5876   -2.7952  -22.4961 C   0  0  0  0  0  0  0  0  0  0  0  0
   -6.3403   -3.2990  -21.8325 C   0  0  0  0  0  0  0  0  0  0  0  0
   -5.4941   -2.3653  -21.0190 C   0  0  0  0  0  0  0  0  0  0  0  0
   -5.8951   -0.9277  -20.8690 C   0  0  0  0  0  0  0  0  0  0  0  0
   -5.0488    0.0061  -20.0554 F   0  0  0  0  0  0  0  0  0  0  0  0
   -7.1424   -0.4239  -21.5326 C   0  0  0  0  0  0  0  0  0  0  0  0
   -7.9887   -1.3576  -22.3461 C   0  0  0  0  0  0  0  0  0  0  0  0
  -11.4924    2.2515  -23.5853 C   0  0  0  0  0  0  0  0  0  0  0  0
  -12.9215    2.0575  -23.1730 C   0  0  0  0  0  0  0  0  0  0  0  0
  -13.9564    3.0746  -23.5530 N   0  0  0  0  0  0  0  0  0  0  0  0
  -13.5622    4.2857  -24.3453 C   0  0  0  0  0  0  0  0  0  0  0  0
  -12.1331    4.4797  -24.7576 C   0  0  0  0  0  0  0  0  0  0  0  0
  -11.7389    5.6910  -25.5499 C   0  0  0  0  0  0  0  0  0  0  0  0
  -10.3098    5.8849  -25.9622 C   0  0  0  0  0  0  0  0  0  0  0  0
   -9.2749    4.8678  -25.5822 C   0  0  0  0  0  0  0  0  0  0  0  0
   -9.6691    3.6566  -24.7900 C   0  0  0  0  0  0  0  0  0  0  0  0
  -11.0982    3.4626  -24.3776 C   0  0  0  0  0  0  0  0  0  0  0  0
  -10.5276   -4.1589  -24.7869 C   0  0  0  0  0  0  0  0  0  0  0  0
   -9.9986   -4.7234  -26.0720 C   0  0  0  0  0  0  0  0  0  0  0  0
   -9.1954   -3.9794  -27.0973 C   0  0  0  0  0  0  0  0  0  0  0  0
   -8.8804   -4.9272  -28.2164 O   0  0  0  0  0  0  0  0  0  0  0  0
   -9.4889   -6.2570  -27.8828 C   0  0  0  0  0  0  0  0  0  0  0  0
  -10.1800   -6.1310  -26.5574 N   0  0  0  0  0  0  0  0  0  0  0  0
  2  1  1  0  0  0
  2  3  1  0  0  0
  3  4  1  0  0  0
  4 19  1  0  0  0
 19 20  2  0  0  0
 20 21  1  0  0  0
 21 22  2  0  0  0
 22 23  1  0  0  0
 23 24  2  0  0  0
 24 25  1  0  0  0
 25 26  2  0  0  0
 26 27  1  0  0  0
 27 28  2  0  0  0
  4  5  1  0  0  0
  5  6  2  0  0  0
  5  7  1  0  0  0
  7  8  1  0  0  0
  8  9  1  0  0  0
  9 29  1  0  0  0
 29 30  1  0  0  0
 30 31  2  0  0  0
 31 32  1  0  0  0
 32 33  1  0  0  0
 33 34  2  0  0  0
  9 10  1  0  0  0
 10 11  2  0  0  0
 10 12  1  0  0  0
 12 13  2  0  0  0
 13 14  1  0  0  0
 14 15  2  0  0  0
 15 16  1  0  0  0
 15 17  1  0  0  0
 17 18  2  0  0  0
  7  2  1  0  0  0
 34 30  1  0  0  0
 18 12  1  0  0  0
 28 19  1  0  0  0
 18  7  1  0  0  0
 28 23  1  0  0  0
M  END
> <minimizedAffinity>
-8.99229

> <CNNscore>
0.4486734569

> <CNNaffinity>
6.2546305656

> <CNN_VS>
2.8062868118

> <CNNaffinity_variance>
0.1921772063

$$$$



 34 39  0  0  0  0  0  0  0  0999 V2000
  -10.1247   -1.3595  -23.2115 C   0  0  0  0  0  0  0  0  0  0  0  0
   -9.4513   -0.0364  -23.4261 C   0  0  0  0  0  0  0  0  0  0  0  0
   -7.9571   -0.1647  -23.4555 C   0  0  0  0  0  0  0  0  0  0  0  0
   -7.3787    1.2021  -23.6734 N   0  0  0  0  0  0  0  0  0  0  0  0
   -8.5155    2.1750  -23.7786 C   0  0  0  0  0  0  0  0  0  0  0  0
   -8.3929    3.6538  -23.9981 O   0  0  0  0  0  0  0  0  0  0  0  0
   -9.7965    1.4096  -23.6257 C   0  0  0  0  0  0  0  0  0  0  0  0
   -9.9872    2.8827  -23.8343 C   0  0  0  0  0  0  0  0  0  0  0  0
  -11.3704    3.4617  -23.8741 N   0  0  0  0  0  0  0  0  0  0  0  0
  -12.5629    2.5675  -23.7053 C   0  0  0  0  0  0  0  0  0  0  0  0
  -13.9461    3.1465  -23.7451 O   0  0  0  0  0  0  0  0  0  0  0  0
  -12.3721    1.0943  -23.4967 C   0  0  0  0  0  0  0  0  0  0  0  0
  -13.5646    0.2002  -23.3280 C   0  0  0  0  0  0  0  0  0  0  0  0
  -13.3738   -1.2729  -23.1194 C   0  0  0  0  0  0  0  0  0  0  0  0
  -11.9907   -1.8518  -23.0796 C   0  0  0  0  0  0  0  0  0  0  0  0
  -11.7999   -3.3250  -22.8710 F   0  0  0  0  0  0  0  0  0  0  0  0
  -10.7982   -0.9577  -23.2484 C   0  0  0  0  0  0  0  0  0  0  0  0
  -10.9890    0.5154  -23.4569 C   0  0  0  0  0  0  0  0  0  0  0  0
   -5.9198    1.5371  -23.7693 C   0  0  0  0  0  0  0  0  0  0  0  0
   -5.3318    1.9583  -25.0833 C   0  0  0  0  0  0  0  0  0  0  0  0
   -3.8728    2.2933  -25.1792 N   0  0  0  0  0  0  0  0  0  0  0  0
   -3.0019    2.2071  -23.9609 C   0  0  0  0  0  0  0  0  0  0  0  0
   -3.5900    1.7858  -22.6469 C   0  0  0  0  0  0  0  0  0  0  0  0
   -2.7190    1.6996  -21.4286 C   0  0  0  0  0  0  0  0  0  0  0  0
   -3.3071    1.2784  -20.1146 C   0  0  0  0  0  0  0  0  0  0  0  0
   -4.7660    0.9434  -20.0188 C   0  0  0  0  0  0  0  0  0  0  0  0
   -5.6369    1.0297  -21.2370 C   0  0  0  0  0  0  0  0  0  0  0  0
   -5.0489    1.4508  -22.5510 C   0  0  0  0  0  0  0  0  0  0  0  0
  -11.5611    4.9349  -24.0827 C   0  0  0  0  0  0  0  0  0  0  0  0
  -12.0022    5.4521  -25.4198 C   0  0  0  0  0  0  0  0  0  0  0  0
  -11.1142    5.7172  -26.5992 C   0  0  0  0  0  0  0  0  0  0  0  0
  -11.9719    6.2240  -27.7206 O   0  0  0  0  0  0  0  0  0  0  0  0
  -13.3900    6.2722  -27.2342 C   0  0  0  0  0  0  0  0  0  0  0  0
  -13.4088    5.7951  -25.8122 N   0  0  0  0  0  0  0  0  0  0  0  0
  2  1  1  0  0  0
  2  3  1  0  0  0
  3  4  1  0  0  0
  4 19  1  0  0  0
 19 20  2  0  0  0
 20 21  1  0  0  0
 21 22  2  0  0  0
 22 23  1  0  0  0
 23 24  2  0  0  0
 24 25  1  0  0  0
 25 26  2  0  0  0
 26 27  1  0  0  0
 27 28  2  0  0  0
  4  5  1  0  0  0
  5  6  2  0  0  0
  5  7  1  0  0  0
  7  8  1  0  0  0
  8  9  1  0  0  0
  9 29  1  0  0  0
 29 30  1  0  0  0
 30 31  2  0  0  0
 31 32  1  0  0  0
 32 33  1  0  0  0
 33 34  2  0  0  0
  9 10  1  0  0  0
 10 11  2  0  0  0
 10 12  1  0  0  0
 12 13  2  0  0  0
 13 14  1  0  0  0
 14 15  2  0  0  0
 15 16  1  0  0  0
 15 17  1  0  0  0
 17 18  2  0  0  0
  7  2  1  0  0  0
 34 30  1  0  0  0
 18 12  1  0  0  0
 28 19  1  0  0  0
 18  7  1  0  0  0
 28 23  1  0  0  0
M  END
> <minimizedAffinity>
-7.65778

> <CNNscore>
0.2419077605

> <CNNaffinity>
6.0315427780

> <CNN_VS>
1.4590770006

> <CNNaffinity_variance>
0.1234236360

$$$$



 34 39  0  0  0  0  0  0  0  0999 V2000
   -7.5049   -5.1230  -23.2182 C   0  0  0  0  0  0  0  0  0  0  0  0
   -7.2139   -3.6579  -23.0808 C   0  0  0  0  0  0  0  0  0  0  0  0
   -6.7428   -3.3056  -21.7010 C   0  0  0  0  0  0  0  0  0  0  0  0
   -6.4797   -1.8293  -21.6638 N   0  0  0  0  0  0  0  0  0  0  0  0
   -6.7883   -1.2692  -23.0207 C   0  0  0  0  0  0  0  0  0  0  0  0
   -6.6647    0.1686  -23.4300 O   0  0  0  0  0  0  0  0  0  0  0  0
   -7.2420   -2.3993  -23.8965 C   0  0  0  0  0  0  0  0  0  0  0  0
   -7.2192   -1.0662  -24.5837 C   0  0  0  0  0  0  0  0  0  0  0  0
   -7.6290   -0.9570  -26.0225 N   0  0  0  0  0  0  0  0  0  0  0  0
   -8.0618   -2.1809  -26.7740 C   0  0  0  0  0  0  0  0  0  0  0  0
   -8.4717   -2.0716  -28.2128 O   0  0  0  0  0  0  0  0  0  0  0  0
   -8.0847   -3.5140  -26.0868 C   0  0  0  0  0  0  0  0  0  0  0  0
   -8.5174   -4.7379  -26.8384 C   0  0  0  0  0  0  0  0  0  0  0  0
   -8.5403   -6.0710  -26.1511 C   0  0  0  0  0  0  0  0  0  0  0  0
   -8.1304   -6.1802  -24.7124 C   0  0  0  0  0  0  0  0  0  0  0  0
   -8.1533   -7.5134  -24.0252 F   0  0  0  0  0  0  0  0  0  0  0  0
   -7.6977   -4.9564  -23.9608 C   0  0  0  0  0  0  0  0  0  0  0  0
   -7.6748   -3.6233  -24.6480 C   0  0  0  0  0  0  0  0  0  0  0  0
   -5.9935   -1.0499  -20.4780 C   0  0  0  0  0  0  0  0  0  0  0  0
   -6.6962   -1.1752  -19.1589 C   0  0  0  0  0  0  0  0  0  0  0  0
   -6.2100   -0.3958  -17.9731 N   0  0  0  0  0  0  0  0  0  0  0  0
   -5.0210    0.5089  -18.1065 C   0  0  0  0  0  0  0  0  0  0  0  0
   -4.3182    0.6341  -19.4258 C   0  0  0  0  0  0  0  0  0  0  0  0
   -3.1291    1.5388  -19.5592 C   0  0  0  0  0  0  0  0  0  0  0  0
   -2.4264    1.6640  -20.8785 C   0  0  0  0  0  0  0  0  0  0  0  0
   -2.9127    0.8846  -22.0642 C   0  0  0  0  0  0  0  0  0  0  0  0
   -4.1017   -0.0200  -21.9308 C   0  0  0  0  0  0  0  0  0  0  0  0
   -4.8044   -0.1453  -20.6116 C   0  0  0  0  0  0  0  0  0  0  0  0
   -7.6062    0.3762  -26.7097 C   0  0  0  0  0  0  0  0  0  0  0  0
   -8.4205    1.5133  -26.1678 C   0  0  0  0  0  0  0  0  0  0  0  0
   -8.3365    2.9454  -26.6062 C   0  0  0  0  0  0  0  0  0  0  0  0
   -9.3259    3.7352  -25.8018 O   0  0  0  0  0  0  0  0  0  0  0  0
  -10.0214    2.7914  -24.8661 C   0  0  0  0  0  0  0  0  0  0  0  0
   -9.4618    1.4182  -25.0923 N   0  0  0  0  0  0  0  0  0  0  0  0
  2  1  1  0  0  0
  2  3  1  0  0  0
  3  4  1  0  0  0
  4 19  1  0  0  0
 19 20  2  0  0  0
 20 21  1  0  0  0
 21 22  2  0  0  0
 22 23  1  0  0  0
 23 24  2  0  0  0
 24 25  1  0  0  0
 25 26  2  0  0  0
 26 27  1  0  0  0
 27 28  2  0  0  0
  4  5  1  0  0  0
  5  6  2  0  0  0
  5  7  1  0  0  0
  7  8  1  0  0  0
  8  9  1  0  0  0
  9 29  1  0  0  0
 29 30  1  0  0  0
 30 31  2  0  0  0
 31 32  1  0  0  0
 32 33  1  0  0  0
 33 34  2  0  0  0
  9 10  1  0  0  0
 10 11  2  0  0  0
 10 12  1  0  0  0
 12 13  2  0  0  0
 13 14  1  0  0  0
 14 15  2  0  0  0
 15 16  1  0  0  0
 15 17  1  0  0  0
 17 18  2  0  0  0
  7  2  1  0  0  0
 34 30  1  0  0  0
 18 12  1  0  0  0
 28 19  1  0  0  0
 18  7  1  0  0  0
 28 23  1  0  0  0
M  END
> <minimizedAffinity>
-8.36604

> <CNNscore>
0.2314086854

> <CNNaffinity>
6.0996541977

> <CNN_VS>
1.4115129709

> <CNNaffinity_variance>
0.1385605037

$$$$



 34 39  0  0  0  0  0  0  0  0999 V2000
  -11.6567   -1.9742  -23.1481 C   0  0  0  0  0  0  0  0  0  0  0  0
  -10.1679   -1.9273  -23.3255 C   0  0  0  0  0  0  0  0  0  0  0  0
   -9.5378   -3.2766  -23.1453 C   0  0  0  0  0  0  0  0  0  0  0  0
   -8.0582   -3.1269  -23.3408 N   0  0  0  0  0  0  0  0  0  0  0  0
   -7.7738   -1.6852  -23.6417 C   0  0  0  0  0  0  0  0  0  0  0  0
   -6.4227   -1.0895  -23.9057 O   0  0  0  0  0  0  0  0  0  0  0  0
   -9.0777   -0.9438  -23.6323 C   0  0  0  0  0  0  0  0  0  0  0  0
   -7.8872   -0.0805  -23.9280 C   0  0  0  0  0  0  0  0  0  0  0  0
   -8.0690    1.3868  -24.1809 N   0  0  0  0  0  0  0  0  0  0  0  0
   -9.4413    1.9909  -24.1381 C   0  0  0  0  0  0  0  0  0  0  0  0
   -9.6231    3.4582  -24.3910 O   0  0  0  0  0  0  0  0  0  0  0  0
  -10.6319    1.1276  -23.8423 C   0  0  0  0  0  0  0  0  0  0  0  0
  -12.0042    1.7317  -23.7995 C   0  0  0  0  0  0  0  0  0  0  0  0
  -13.1947    0.8685  -23.5038 C   0  0  0  0  0  0  0  0  0  0  0  0
  -13.0129   -0.5989  -23.2509 C   0  0  0  0  0  0  0  0  0  0  0  0
  -14.2035   -1.4621  -22.9552 F   0  0  0  0  0  0  0  0  0  0  0  0
  -11.6406   -1.2029  -23.2937 C   0  0  0  0  0  0  0  0  0  0  0  0
  -10.4501   -0.3397  -23.5894 C   0  0  0  0  0  0  0  0  0  0  0  0
   -7.0414   -4.2260  -23.2511 C   0  0  0  0  0  0  0  0  0  0  0  0
   -6.2645   -4.4275  -21.9839 C   0  0  0  0  0  0  0  0  0  0  0  0
   -5.2477   -5.5266  -21.8942 N   0  0  0  0  0  0  0  0  0  0  0  0
   -5.0078   -6.4242  -23.0717 C   0  0  0  0  0  0  0  0  0  0  0  0
   -5.7847   -6.2228  -24.3390 C   0  0  0  0  0  0  0  0  0  0  0  0
   -5.5447   -7.1205  -25.5166 C   0  0  0  0  0  0  0  0  0  0  0  0
   -6.3217   -6.9190  -26.7838 C   0  0  0  0  0  0  0  0  0  0  0  0
   -7.3384   -5.8199  -26.8734 C   0  0  0  0  0  0  0  0  0  0  0  0
   -7.5783   -4.9223  -25.6959 C   0  0  0  0  0  0  0  0  0  0  0  0
   -6.8015   -5.1237  -24.4287 C   0  0  0  0  0  0  0  0  0  0  0  0
   -6.8784    2.2500  -24.4766 C   0  0  0  0  0  0  0  0  0  0  0  0
   -6.7602    3.6061  -23.8465 C   0  0  0  0  0  0  0  0  0  0  0  0
   -6.5653    4.9028  -24.5750 C   0  0  0  0  0  0  0  0  0  0  0  0
   -6.5008    6.0017  -23.5561 O   0  0  0  0  0  0  0  0  0  0  0  0
   -6.6559    5.3842  -22.1978 C   0  0  0  0  0  0  0  0  0  0  0  0
   -6.8162    3.9037  -22.3774 N   0  0  0  0  0  0  0  0  0  0  0  0
  2  1  1  0  0  0
  2  3  1  0  0  0
  3  4  1  0  0  0
  4 19  1  0  0  0
 19 20  2  0  0  0
 20 21  1  0  0  0
 21 22  2  0  0  0
 22 23  1  0  0  0
 23 24  2  0  0  0
 24 25  1  0  0  0
 25 26  2  0  0  0
 26 27  1  0  0  0
 27 28  2  0  0  0
  4  5  1  0  0  0
  5  6  2  0  0  0
  5  7  1  0  0  0
  7  8  1  0  0  0
  8  9  1  0  0  0
  9 29  1  0  0  0
 29 30  1  0  0  0
 30 31  2  0  0  0
 31 32  1  0  0  0
 32 33  1  0  0  0
 33 34  2  0  0  0
  9 10  1  0  0  0
 10 11  2  0  0  0
 10 12  1  0  0  0
 12 13  2  0  0  0
 13 14  1  0  0  0
 14 15  2  0  0  0
 15 16  1  0  0  0
 15 17  1  0  0  0
 17 18  2  0  0  0
  7  2  1  0  0  0
 34 30  1  0  0  0
 18 12  1  0  0  0
 28 19  1  0  0  0
 18  7  1  0  0  0
 28 23  1  0  0  0
M  END
> <minimizedAffinity>
-7.79887

> <CNNscore>
0.2018974274

> <CNNaffinity>
6.0826325417

> <CNN_VS>
1.2280678749

> <CNNaffinity_variance>
0.3639576435

$$$$



 34 39  0  0  0  0  0  0  0  0999 V2000
   -7.3730   -5.1180  -23.2666 C   0  0  0  0  0  0  0  0  0  0  0  0
   -7.1229   -3.6474  -23.1095 C   0  0  0  0  0  0  0  0  0  0  0  0
   -6.6555   -3.3015  -21.7268 C   0  0  0  0  0  0  0  0  0  0  0  0
   -6.4341   -1.8190  -21.6697 N   0  0  0  0  0  0  0  0  0  0  0  0
   -6.7647   -1.2487  -23.0171 C   0  0  0  0  0  0  0  0  0  0  0  0
   -6.6837    0.1977  -23.4063 O   0  0  0  0  0  0  0  0  0  0  0  0
   -7.1904   -2.3787  -23.9070 C   0  0  0  0  0  0  0  0  0  0  0  0
   -7.2084   -1.0359  -24.5752 C   0  0  0  0  0  0  0  0  0  0  0  0
   -7.6280   -0.9179  -26.0104 N   0  0  0  0  0  0  0  0  0  0  0  0
   -8.0295   -2.1428  -26.7776 C   0  0  0  0  0  0  0  0  0  0  0  0
   -8.4490   -2.0248  -28.2129 O   0  0  0  0  0  0  0  0  0  0  0  0
   -8.0114   -3.4857  -26.1094 C   0  0  0  0  0  0  0  0  0  0  0  0
   -8.4130   -4.7105  -26.8765 C   0  0  0  0  0  0  0  0  0  0  0  0
   -8.3949   -6.0533  -26.2083 C   0  0  0  0  0  0  0  0  0  0  0  0
   -7.9754   -6.1713  -24.7730 C   0  0  0  0  0  0  0  0  0  0  0  0
   -7.9573   -7.5142  -24.1049 F   0  0  0  0  0  0  0  0  0  0  0  0
   -7.5739   -4.9464  -24.0059 C   0  0  0  0  0  0  0  0  0  0  0  0
   -7.5919   -3.6036  -24.6741 C   0  0  0  0  0  0  0  0  0  0  0  0
   -5.9645   -1.0430  -20.4750 C   0  0  0  0  0  0  0  0  0  0  0  0
   -6.6888   -1.1681  -19.1675 C   0  0  0  0  0  0  0  0  0  0  0  0
   -6.2192   -0.3922  -17.9727 N   0  0  0  0  0  0  0  0  0  0  0  0
   -5.0253    0.5089  -18.0856 C   0  0  0  0  0  0  0  0  0  0  0  0
   -4.3010    0.6340  -19.3932 C   0  0  0  0  0  0  0  0  0  0  0  0
   -3.1071    1.5351  -19.5060 C   0  0  0  0  0  0  0  0  0  0  0  0
   -2.3829    1.6601  -20.8136 C   0  0  0  0  0  0  0  0  0  0  0  0
   -2.8525    0.8841  -22.0083 C   0  0  0  0  0  0  0  0  0  0  0  0
   -4.0463   -0.0169  -21.8954 C   0  0  0  0  0  0  0  0  0  0  0  0
   -4.7706   -0.1420  -20.5879 C   0  0  0  0  0  0  0  0  0  0  0  0
   -7.6460    0.4250  -26.6786 C   0  0  0  0  0  0  0  0  0  0  0  0
   -6.4507    1.3261  -26.5835 C   0  0  0  0  0  0  0  0  0  0  0  0
   -6.4176    2.6820  -25.9429 C   0  0  0  0  0  0  0  0  0  0  0  0
   -5.0250    3.2235  -26.0757 O   0  0  0  0  0  0  0  0  0  0  0  0
   -4.1975    2.2022  -26.7984 C   0  0  0  0  0  0  0  0  0  0  0  0
   -5.0786    1.0296  -27.1122 N   0  0  0  0  0  0  0  0  0  0  0  0
  2  1  1  0  0  0
  2  3  1  0  0  0
  3  4  1  0  0  0
  4 19  1  0  0  0
 19 20  2  0  0  0
 20 21  1  0  0  0
 21 22  2  0  0  0
 22 23  1  0  0  0
 23 24  2  0  0  0
 24 25  1  0  0  0
 25 26  2  0  0  0
 26 27  1  0  0  0
 27 28  2  0  0  0
  4  5  1  0  0  0
  5  6  2  0  0  0
  5  7  1  0  0  0
  7  8  1  0  0  0
  8  9  1  0  0  0
  9 29  1  0  0  0
 29 30  1  0  0  0
 30 31  2  0  0  0
 31 32  1  0  0  0
 32 33  1  0  0  0
 33 34  2  0  0  0
  9 10  1  0  0  0
 10 11  2  0  0  0
 10 12  1  0  0  0
 12 13  2  0  0  0
 13 14  1  0  0  0
 14 15  2  0  0  0
 15 16  1  0  0  0
 15 17  1  0  0  0
 17 18  2  0  0  0
  7  2  1  0  0  0
 34 30  1  0  0  0
 18 12  1  0  0  0
 28 19  1  0  0  0
 18  7  1  0  0  0
 28 23  1  0  0  0
M  END
> <minimizedAffinity>
-7.63442

> <CNNscore>
0.1870334595

> <CNNaffinity>
6.0520429611

> <CNN_VS>
1.1319345236

> <CNNaffinity_variance>
0.0975321382

$$$$
