


 34 39  0  0  0  0  0  0  0  0999 V2000
    7.5306   -3.3381   23.5099 C   0  0  0  0  0  0  0  0  0  0  0  0
    7.7511   -2.0745   22.7321 C   0  0  0  0  0  0  0  0  0  0  0  0
    6.6482   -1.8212   21.7474 C   0  0  0  0  0  0  0  0  0  0  0  0
    6.9573   -0.5442   21.0238 N   0  0  0  0  0  0  0  0  0  0  0  0
    8.2511   -0.0083   21.5612 C   0  0  0  0  0  0  0  0  0  0  0  0
    8.9344    1.2521   21.1202 O   0  0  0  0  0  0  0  0  0  0  0  0
    8.7417   -0.9541   22.6170 C   0  0  0  0  0  0  0  0  0  0  0  0
    9.6394    0.2261   22.3904 C   0  0  0  0  0  0  0  0  0  0  0  0
   10.8994    0.3746   23.1906 N   0  0  0  0  0  0  0  0  0  0  0  0
   11.2617   -0.6570   24.2175 C   0  0  0  0  0  0  0  0  0  0  0  0
   12.5217   -0.5084   25.0177 O   0  0  0  0  0  0  0  0  0  0  0  0
   10.3640   -1.8372   24.4441 C   0  0  0  0  0  0  0  0  0  0  0  0
   10.7264   -2.8688   25.4710 C   0  0  0  0  0  0  0  0  0  0  0  0
    9.8287   -4.0490   25.6976 C   0  0  0  0  0  0  0  0  0  0  0  0
    8.5688   -4.1976   24.8973 C   0  0  0  0  0  0  0  0  0  0  0  0
    7.6711   -5.3778   25.1240 F   0  0  0  0  0  0  0  0  0  0  0  0
    8.2064   -3.1659   23.8705 C   0  0  0  0  0  0  0  0  0  0  0  0
    9.1041   -1.9858   23.6439 C   0  0  0  0  0  0  0  0  0  0  0  0
    6.1196    0.0863   19.9510 C   0  0  0  0  0  0  0  0  0  0  0  0
    6.5190   -0.0481   18.5115 C   0  0  0  0  0  0  0  0  0  0  0  0
    5.6814    0.5823   17.4387 N   0  0  0  0  0  0  0  0  0  0  0  0
    4.4443    1.3472   17.8055 C   0  0  0  0  0  0  0  0  0  0  0  0
    4.0449    1.4816   19.2451 C   0  0  0  0  0  0  0  0  0  0  0  0
    2.8077    2.2465   19.6120 C   0  0  0  0  0  0  0  0  0  0  0  0
    2.4083    2.3808   21.0516 C   0  0  0  0  0  0  0  0  0  0  0  0
    3.2460    1.7504   22.1243 C   0  0  0  0  0  0  0  0  0  0  0  0
    4.4831    0.9855   21.7574 C   0  0  0  0  0  0  0  0  0  0  0  0
    4.8825    0.8511   20.3179 C   0  0  0  0  0  0  0  0  0  0  0  0
   11.7970    1.5549   22.9640 C   0  0  0  0  0  0  0  0  0  0  0  0
   11.2281    2.9428   22.9743 C   0  0  0  0  0  0  0  0  0  0  0  0
    9.7714    3.2982   23.0148 C   0  0  0  0  0  0  0  0  0  0  0  0
    9.6590    4.7940   23.0114 O   0  0  0  0  0  0  0  0  0  0  0  0
   11.0463    5.3630   22.9689 C   0  0  0  0  0  0  0  0  0  0  0  0
   12.0161    4.2189   22.9459 N   0  0  0  0  0  0  0  0  0  0  0  0
  2  1  1  0  0  0
  2  3  1  0  0  0
  3  4  1  0  0  0
  4 19  1  0  0  0
 19 20  2  0  0  0
 20 21  1  0  0  0
 21 22  2  0  0  0
 22 23  1  0  0  0
 23 24  2  0  0  0
 24 25  1  0  0  0
 25 26  2  0  0  0
 26 27  1  0  0  0
 27 28  2  0  0  0
  4  5  1  0  0  0
  5  6  2  0  0  0
  5  7  1  0  0  0
  7  8  1  0  0  0
  8  9  1  0  0  0
  9 29  1  0  0  0
 29 30  1  0  0  0
 30 31  2  0  0  0
 31 32  1  0  0  0
 32 33  1  0  0  0
 33 34  2  0  0  0
  9 10  1  0  0  0
 10 11  2  0  0  0
 10 12  1  0  0  0
 12 13  2  0  0  0
 13 14  1  0  0  0
 14 15  2  0  0  0
 15 16  1  0  0  0
 15 17  1  0  0  0
 17 18  2  0  0  0
  7  2  1  0  0  0
 34 30  1  0  0  0
 18 12  1  0  0  0
 28 19  1  0  0  0
 18  7  1  0  0  0
 28 23  1  0  0  0
M  END
> <minimizedAffinity>
-9.66957

> <CNNscore>
0.6218609810

> <CNNaffinity>
6.7353544235

> <CNN_VS>
4.1884541512

> <CNNaffinity_variance>
0.0812579244

$$$$



 34 39  0  0  0  0  0  0  0  0999 V2000
    9.1588   -0.9193   23.6843 C   0  0  0  0  0  0  0  0  0  0  0  0
    7.9928   -1.3195   22.8295 C   0  0  0  0  0  0  0  0  0  0  0  0
    7.5958   -0.2319   21.8758 C   0  0  0  0  0  0  0  0  0  0  0  0
    6.4297   -0.7242   21.0709 N   0  0  0  0  0  0  0  0  0  0  0  0
    6.1062   -2.1160   21.5271 C   0  0  0  0  0  0  0  0  0  0  0  0
    5.0091   -2.9870   20.9905 O   0  0  0  0  0  0  0  0  0  0  0  0
    7.0722   -2.4840   22.6140 C   0  0  0  0  0  0  0  0  0  0  0  0
    6.0817   -3.5620   22.2875 C   0  0  0  0  0  0  0  0  0  0  0  0
    6.1203   -4.8655   23.0287 N   0  0  0  0  0  0  0  0  0  0  0  0
    7.1494   -5.0910   24.0964 C   0  0  0  0  0  0  0  0  0  0  0  0
    7.1881   -6.3944   24.8377 O   0  0  0  0  0  0  0  0  0  0  0  0
    8.1400   -4.0128   24.4230 C   0  0  0  0  0  0  0  0  0  0  0  0
    9.1691   -4.2383   25.4907 C   0  0  0  0  0  0  0  0  0  0  0  0
   10.1596   -3.1602   25.8172 C   0  0  0  0  0  0  0  0  0  0  0  0
   10.1210   -1.8567   25.0760 C   0  0  0  0  0  0  0  0  0  0  0  0
   11.1115   -0.7786   25.4025 F   0  0  0  0  0  0  0  0  0  0  0  0
    9.0919   -1.6313   24.0083 C   0  0  0  0  0  0  0  0  0  0  0  0
    8.1014   -2.7094   23.6818 C   0  0  0  0  0  0  0  0  0  0  0  0
    5.7131    0.0409   19.9980 C   0  0  0  0  0  0  0  0  0  0  0  0
    6.1927   -0.0298   18.5786 C   0  0  0  0  0  0  0  0  0  0  0  0
    5.4760    0.7353   17.5058 N   0  0  0  0  0  0  0  0  0  0  0  0
    4.2798    1.5712   17.8525 C   0  0  0  0  0  0  0  0  0  0  0  0
    3.8002    1.6420   19.2720 C   0  0  0  0  0  0  0  0  0  0  0  0
    2.6039    2.4780   19.6187 C   0  0  0  0  0  0  0  0  0  0  0  0
    2.1243    2.5487   21.0382 C   0  0  0  0  0  0  0  0  0  0  0  0
    2.8410    1.7835   22.1110 C   0  0  0  0  0  0  0  0  0  0  0  0
    4.0373    0.9476   21.7643 C   0  0  0  0  0  0  0  0  0  0  0  0
    4.5168    0.8768   20.3448 C   0  0  0  0  0  0  0  0  0  0  0  0
    5.1298   -5.9436   22.7022 C   0  0  0  0  0  0  0  0  0  0  0  0
    3.8720   -6.0758   23.5086 C   0  0  0  0  0  0  0  0  0  0  0  0
    2.5902   -6.7031   23.0465 C   0  0  0  0  0  0  0  0  0  0  0  0
    1.6011   -6.6188   24.1710 O   0  0  0  0  0  0  0  0  0  0  0  0
    2.2716   -5.9394   25.3282 C   0  0  0  0  0  0  0  0  0  0  0  0
    3.6750   -5.6038   24.9188 N   0  0  0  0  0  0  0  0  0  0  0  0
  2  1  1  0  0  0
  2  3  1  0  0  0
  3  4  1  0  0  0
  4 19  1  0  0  0
 19 20  2  0  0  0
 20 21  1  0  0  0
 21 22  2  0  0  0
 22 23  1  0  0  0
 23 24  2  0  0  0
 24 25  1  0  0  0
 25 26  2  0  0  0
 26 27  1  0  0  0
 27 28  2  0  0  0
  4  5  1  0  0  0
  5  6  2  0  0  0
  5  7  1  0  0  0
  7  8  1  0  0  0
  8  9  1  0  0  0
  9 29  1  0  0  0
 29 30  1  0  0  0
 30 31  2  0  0  0
 31 32  1  0  0  0
 32 33  1  0  0  0
 33 34  2  0  0  0
  9 10  1  0  0  0
 10 11  2  0  0  0
 10 12  1  0  0  0
 12 13  2  0  0  0
 13 14  1  0  0  0
 14 15  2  0  0  0
 15 16  1  0  0  0
 15 17  1  0  0  0
 17 18  2  0  0  0
  7  2  1  0  0  0
 34 30  1  0  0  0
 18 12  1  0  0  0
 28 19  1  0  0  0
 18  7  1  0  0  0
 28 23  1  0  0  0
M  END
> <minimizedAffinity>
-8.25889

> <CNNscore>
0.5198526978

> <CNNaffinity>
6.4919939041

> <CNN_VS>
3.3748805523

> <CNNaffinity_variance>
0.0410528816

$$$$



 34 39  0  0  0  0  0  0  0  0999 V2000
   11.2023   -1.5444   25.0154 C   0  0  0  0  0  0  0  0  0  0  0  0
   10.4873   -0.5246   24.1794 C   0  0  0  0  0  0  0  0  0  0  0  0
   11.2664    0.7519   24.0622 C   0  0  0  0  0  0  0  0  0  0  0  0
   10.4744    1.7020   23.2136 N   0  0  0  0  0  0  0  0  0  0  0  0
    9.2059    1.0127   22.8063 C   0  0  0  0  0  0  0  0  0  0  0  0
    8.1201    1.5969   21.9521 O   0  0  0  0  0  0  0  0  0  0  0  0
    9.2139   -0.3634   23.4032 C   0  0  0  0  0  0  0  0  0  0  0  0
    7.9899   -0.0574   22.5921 C   0  0  0  0  0  0  0  0  0  0  0  0
    6.9134   -1.0909   22.4396 N   0  0  0  0  0  0  0  0  0  0  0  0
    7.0610   -2.4304   23.0983 C   0  0  0  0  0  0  0  0  0  0  0  0
    5.9846   -3.4638   22.9458 O   0  0  0  0  0  0  0  0  0  0  0  0
    8.2851   -2.7365   23.9095 C   0  0  0  0  0  0  0  0  0  0  0  0
    8.4328   -4.0760   24.5682 C   0  0  0  0  0  0  0  0  0  0  0  0
    9.6568   -4.3820   25.3793 C   0  0  0  0  0  0  0  0  0  0  0  0
   10.7332   -3.3485   25.5318 C   0  0  0  0  0  0  0  0  0  0  0  0
   11.9573   -3.6546   26.3430 F   0  0  0  0  0  0  0  0  0  0  0  0
   10.5856   -2.0090   24.8731 C   0  0  0  0  0  0  0  0  0  0  0  0
    9.3616   -1.7030   24.0620 C   0  0  0  0  0  0  0  0  0  0  0  0
   10.8797    3.0965   22.8381 C   0  0  0  0  0  0  0  0  0  0  0  0
   12.2335    3.3498   22.2440 C   0  0  0  0  0  0  0  0  0  0  0  0
   12.6388    4.7443   21.8685 N   0  0  0  0  0  0  0  0  0  0  0  0
   11.6903    5.8856   22.0872 C   0  0  0  0  0  0  0  0  0  0  0  0
   10.3364    5.6323   22.6813 C   0  0  0  0  0  0  0  0  0  0  0  0
    9.3879    6.7736   22.9000 C   0  0  0  0  0  0  0  0  0  0  0  0
    8.0341    6.5202   23.4941 C   0  0  0  0  0  0  0  0  0  0  0  0
    7.6288    5.1257   23.8696 C   0  0  0  0  0  0  0  0  0  0  0  0
    8.5773    3.9845   23.6509 C   0  0  0  0  0  0  0  0  0  0  0  0
    9.9311    4.2377   23.0568 C   0  0  0  0  0  0  0  0  0  0  0  0
    5.6893   -0.7848   21.6284 C   0  0  0  0  0  0  0  0  0  0  0  0
    5.8272   -0.3170   20.2100 C   0  0  0  0  0  0  0  0  0  0  0  0
    7.0581   -0.4296   19.3602 C   0  0  0  0  0  0  0  0  0  0  0  0
    6.7501    0.1633   18.0172 O   0  0  0  0  0  0  0  0  0  0  0  0
    5.3288    0.6425   18.0370 C   0  0  0  0  0  0  0  0  0  0  0  0
    4.7585    0.3457   19.3922 N   0  0  0  0  0  0  0  0  0  0  0  0
  2  1  1  0  0  0
  2  3  1  0  0  0
  3  4  1  0  0  0
  4 19  1  0  0  0
 19 20  2  0  0  0
 20 21  1  0  0  0
 21 22  2  0  0  0
 22 23  1  0  0  0
 23 24  2  0  0  0
 24 25  1  0  0  0
 25 26  2  0  0  0
 26 27  1  0  0  0
 27 28  2  0  0  0
  4  5  1  0  0  0
  5  6  2  0  0  0
  5  7  1  0  0  0
  7  8  1  0  0  0
  8  9  1  0  0  0
  9 29  1  0  0  0
 29 30  1  0  0  0
 30 31  2  0  0  0
 31 32  1  0  0  0
 32 33  1  0  0  0
 33 34  2  0  0  0
  9 10  1  0  0  0
 10 11  2  0  0  0
 10 12  1  0  0  0
 12 13  2  0  0  0
 13 14  1  0  0  0
 14 15  2  0  0  0
 15 16  1  0  0  0
 15 17  1  0  0  0
 17 18  2  0  0  0
  7  2  1  0  0  0
 34 30  1  0  0  0
 18 12  1  0  0  0
 28 19  1  0  0  0
 18  7  1  0  0  0
 28 23  1  0  0  0
M  END
> <minimizedAffinity>
-9.10686

> <CNNscore>
0.5155024529

> <CNNaffinity>
6.8023347855

> <CNN_VS>
3.5066201687

> <CNNaffinity_variance>
0.1974066645

$$$$



 34 39  0  0  0  0  0  0  0  0999 V2000
   11.0045   -3.3803   26.1194 C   0  0  0  0  0  0  0  0  0  0  0  0
    9.6254   -2.8929   25.7867 C   0  0  0  0  0  0  0  0  0  0  0  0
    8.5621   -3.7921   26.3440 C   0  0  0  0  0  0  0  0  0  0  0  0
    7.2275   -3.2246   25.9609 N   0  0  0  0  0  0  0  0  0  0  0  0
    7.4661   -1.9746   25.1668 C   0  0  0  0  0  0  0  0  0  0  0  0
    6.4083   -1.0857   24.5829 O   0  0  0  0  0  0  0  0  0  0  0  0
    8.9481   -1.7696   25.0591 C   0  0  0  0  0  0  0  0  0  0  0  0
    8.1346   -0.7131   24.3721 C   0  0  0  0  0  0  0  0  0  0  0  0
    8.8191    0.4168   23.6617 N   0  0  0  0  0  0  0  0  0  0  0  0
   10.3170    0.4903   23.6382 C   0  0  0  0  0  0  0  0  0  0  0  0
   11.0015    1.6202   22.9278 O   0  0  0  0  0  0  0  0  0  0  0  0
   11.1306   -0.5662   24.3253 C   0  0  0  0  0  0  0  0  0  0  0  0
   12.6286   -0.4927   24.3018 C   0  0  0  0  0  0  0  0  0  0  0  0
   13.4421   -1.5492   24.9888 C   0  0  0  0  0  0  0  0  0  0  0  0
   12.7577   -2.6791   25.6993 C   0  0  0  0  0  0  0  0  0  0  0  0
   13.5713   -3.7356   26.3863 F   0  0  0  0  0  0  0  0  0  0  0  0
   11.2597   -2.7526   25.7227 C   0  0  0  0  0  0  0  0  0  0  0  0
   10.4462   -1.6961   25.0357 C   0  0  0  0  0  0  0  0  0  0  0  0
    5.8893   -3.8051   26.3104 C   0  0  0  0  0  0  0  0  0  0  0  0
    5.1169   -4.5803   25.2846 C   0  0  0  0  0  0  0  0  0  0  0  0
    3.7787   -5.1608   25.6342 N   0  0  0  0  0  0  0  0  0  0  0  0
    3.2129   -4.9661   27.0096 C   0  0  0  0  0  0  0  0  0  0  0  0
    3.9853   -4.1908   28.0355 C   0  0  0  0  0  0  0  0  0  0  0  0
    3.4195   -3.9961   29.4111 C   0  0  0  0  0  0  0  0  0  0  0  0
    4.1919   -3.2209   30.4369 C   0  0  0  0  0  0  0  0  0  0  0  0
    5.5301   -2.6405   30.0873 C   0  0  0  0  0  0  0  0  0  0  0  0
    6.0959   -2.8352   28.7118 C   0  0  0  0  0  0  0  0  0  0  0  0
    5.3235   -3.6103   27.6860 C   0  0  0  0  0  0  0  0  0  0  0  0
    8.0055    1.4733   22.9746 C   0  0  0  0  0  0  0  0  0  0  0  0
    7.6169    2.7195   23.7135 C   0  0  0  0  0  0  0  0  0  0  0  0
    7.9173    4.1263   23.2886 C   0  0  0  0  0  0  0  0  0  0  0  0
    7.3457    5.0539   24.3196 O   0  0  0  0  0  0  0  0  0  0  0  0
    6.6921    4.2204   25.3817 C   0  0  0  0  0  0  0  0  0  0  0  0
    6.8597    2.7776   25.0071 N   0  0  0  0  0  0  0  0  0  0  0  0
  2  1  1  0  0  0
  2  3  1  0  0  0
  3  4  1  0  0  0
  4 19  1  0  0  0
 19 20  2  0  0  0
 20 21  1  0  0  0
 21 22  2  0  0  0
 22 23  1  0  0  0
 23 24  2  0  0  0
 24 25  1  0  0  0
 25 26  2  0  0  0
 26 27  1  0  0  0
 27 28  2  0  0  0
  4  5  1  0  0  0
  5  6  2  0  0  0
  5  7  1  0  0  0
  7  8  1  0  0  0
  8  9  1  0  0  0
  9 29  1  0  0  0
 29 30  1  0  0  0
 30 31  2  0  0  0
 31 32  1  0  0  0
 32 33  1  0  0  0
 33 34  2  0  0  0
  9 10  1  0  0  0
 10 11  2  0  0  0
 10 12  1  0  0  0
 12 13  2  0  0  0
 13 14  1  0  0  0
 14 15  2  0  0  0
 15 16  1  0  0  0
 15 17  1  0  0  0
 17 18  2  0  0  0
  7  2  1  0  0  0
 34 30  1  0  0  0
 18 12  1  0  0  0
 28 19  1  0  0  0
 18  7  1  0  0  0
 28 23  1  0  0  0
M  END
> <minimizedAffinity>
-7.86168

> <CNNscore>
0.4815603495

> <CNNaffinity>
6.6713457108

> <CNN_VS>
3.2126555443

> <CNNaffinity_variance>
0.2592688501

$$$$



 34 39  0  0  0  0  0  0  0  0999 V2000
    5.7619   -0.3933   26.7723 C   0  0  0  0  0  0  0  0  0  0  0  0
    6.4974   -0.0248   25.5179 C   0  0  0  0  0  0  0  0  0  0  0  0
    7.9749   -0.2500   25.6461 C   0  0  0  0  0  0  0  0  0  0  0  0
    8.6181    0.1449   24.3499 N   0  0  0  0  0  0  0  0  0  0  0  0
    7.5383    0.6142   23.4206 C   0  0  0  0  0  0  0  0  0  0  0  0
    7.7346    1.1027   22.0160 O   0  0  0  0  0  0  0  0  0  0  0  0
    6.2276    0.5094   24.1425 C   0  0  0  0  0  0  0  0  0  0  0  0
    6.1124    1.0340   22.7419 C   0  0  0  0  0  0  0  0  0  0  0  0
    4.7680    1.3991   22.1860 N   0  0  0  0  0  0  0  0  0  0  0  0
    3.5387    1.2397   23.0305 C   0  0  0  0  0  0  0  0  0  0  0  0
    2.1942    1.6049   22.4746 O   0  0  0  0  0  0  0  0  0  0  0  0
    3.6538    0.7151   24.4311 C   0  0  0  0  0  0  0  0  0  0  0  0
    2.4244    0.5557   25.2757 C   0  0  0  0  0  0  0  0  0  0  0  0
    2.5396    0.0311   26.6762 C   0  0  0  0  0  0  0  0  0  0  0  0
    3.8840   -0.3341   27.2322 C   0  0  0  0  0  0  0  0  0  0  0  0
    3.9991   -0.8587   28.6328 F   0  0  0  0  0  0  0  0  0  0  0  0
    5.1133   -0.1747   26.3876 C   0  0  0  0  0  0  0  0  0  0  0  0
    4.9982    0.3499   24.9871 C   0  0  0  0  0  0  0  0  0  0  0  0
   10.0839    0.0816   24.0378 C   0  0  0  0  0  0  0  0  0  0  0  0
   10.6797    1.0293   23.0395 C   0  0  0  0  0  0  0  0  0  0  0  0
   12.1455    0.9660   22.7273 N   0  0  0  0  0  0  0  0  0  0  0  0
   13.0155   -0.0450   23.4135 C   0  0  0  0  0  0  0  0  0  0  0  0
   12.4196   -0.9928   24.4119 C   0  0  0  0  0  0  0  0  0  0  0  0
   13.2896   -2.0040   25.0981 C   0  0  0  0  0  0  0  0  0  0  0  0
   12.6937   -2.9517   26.0965 C   0  0  0  0  0  0  0  0  0  0  0  0
   11.2279   -2.8884   26.4085 C   0  0  0  0  0  0  0  0  0  0  0  0
   10.3580   -1.8773   25.7223 C   0  0  0  0  0  0  0  0  0  0  0  0
   10.9538   -0.9295   24.7240 C   0  0  0  0  0  0  0  0  0  0  0  0
    4.6529    1.9238   20.7854 C   0  0  0  0  0  0  0  0  0  0  0  0
    4.9574    1.0279   19.6215 C   0  0  0  0  0  0  0  0  0  0  0  0
    4.4854    1.2234   18.2112 C   0  0  0  0  0  0  0  0  0  0  0  0
    5.0237    0.0955   17.3817 O   0  0  0  0  0  0  0  0  0  0  0  0
    5.8284   -0.7971   18.2793 C   0  0  0  0  0  0  0  0  0  0  0  0
    5.7874   -0.2209   19.6636 N   0  0  0  0  0  0  0  0  0  0  0  0
  2  1  1  0  0  0
  2  3  1  0  0  0
  3  4  1  0  0  0
  4 19  1  0  0  0
 19 20  2  0  0  0
 20 21  1  0  0  0
 21 22  2  0  0  0
 22 23  1  0  0  0
 23 24  2  0  0  0
 24 25  1  0  0  0
 25 26  2  0  0  0
 26 27  1  0  0  0
 27 28  2  0  0  0
  4  5  1  0  0  0
  5  6  2  0  0  0
  5  7  1  0  0  0
  7  8  1  0  0  0
  8  9  1  0  0  0
  9 29  1  0  0  0
 29 30  1  0  0  0
 30 31  2  0  0  0
 31 32  1  0  0  0
 32 33  1  0  0  0
 33 34  2  0  0  0
  9 10  1  0  0  0
 10 11  2  0  0  0
 10 12  1  0  0  0
 12 13  2  0  0  0
 13 14  1  0  0  0
 14 15  2  0  0  0
 15 16  1  0  0  0
 15 17  1  0  0  0
 17 18  2  0  0  0
  7  2  1  0  0  0
 34 30  1  0  0  0
 18 12  1  0  0  0
 28 19  1  0  0  0
 18  7  1  0  0  0
 28 23  1  0  0  0
M  END
> <minimizedAffinity>
-7.94519

> <CNNscore>
0.4096760452

> <CNNaffinity>
6.3306512833

> <CNN_VS>
2.5935161114

> <CNNaffinity_variance>
0.0684879571

$$$$



 34 39  0  0  0  0  0  0  0  0999 V2000
   11.0196    0.0653   22.5074 C   0  0  0  0  0  0  0  0  0  0  0  0
    9.6370   -0.4644   22.2668 C   0  0  0  0  0  0  0  0  0  0  0  0
    8.9195    0.3035   21.1965 C   0  0  0  0  0  0  0  0  0  0  0  0
    7.5553   -0.2977   21.0302 N   0  0  0  0  0  0  0  0  0  0  0  0
    7.4297   -1.4370   21.9977 C   0  0  0  0  0  0  0  0  0  0  0  0
    6.2285   -2.3186   22.1706 O   0  0  0  0  0  0  0  0  0  0  0  0
    8.7163   -1.5401   22.7620 C   0  0  0  0  0  0  0  0  0  0  0  0
    7.6906   -2.5620   23.1536 C   0  0  0  0  0  0  0  0  0  0  0  0
    8.0018   -3.5647   24.2250 N   0  0  0  0  0  0  0  0  0  0  0  0
    9.3388   -3.5455   24.9046 C   0  0  0  0  0  0  0  0  0  0  0  0
    9.6500   -4.5482   25.9759 O   0  0  0  0  0  0  0  0  0  0  0  0
   10.3647   -2.5235   24.5130 C   0  0  0  0  0  0  0  0  0  0  0  0
   11.7017   -2.5043   25.1926 C   0  0  0  0  0  0  0  0  0  0  0  0
   12.7274   -1.4824   24.8010 C   0  0  0  0  0  0  0  0  0  0  0  0
   12.4162   -0.4797   23.7297 C   0  0  0  0  0  0  0  0  0  0  0  0
   13.4421    0.5422   23.3380 F   0  0  0  0  0  0  0  0  0  0  0  0
   11.0792   -0.4989   23.0500 C   0  0  0  0  0  0  0  0  0  0  0  0
   10.0534   -1.5208   23.4416 C   0  0  0  0  0  0  0  0  0  0  0  0
    6.5016    0.1602   20.0658 C   0  0  0  0  0  0  0  0  0  0  0  0
    6.3930   -0.4804   18.7139 C   0  0  0  0  0  0  0  0  0  0  0  0
    5.3394   -0.0225   17.7494 N   0  0  0  0  0  0  0  0  0  0  0  0
    4.3943    1.0759   18.1370 C   0  0  0  0  0  0  0  0  0  0  0  0
    4.5029    1.7165   19.4889 C   0  0  0  0  0  0  0  0  0  0  0  0
    3.5578    2.8150   19.8765 C   0  0  0  0  0  0  0  0  0  0  0  0
    3.6664    3.4556   21.2285 C   0  0  0  0  0  0  0  0  0  0  0  0
    4.7201    2.9977   22.1928 C   0  0  0  0  0  0  0  0  0  0  0  0
    5.6651    1.8993   21.8053 C   0  0  0  0  0  0  0  0  0  0  0  0
    5.5566    1.2587   20.4534 C   0  0  0  0  0  0  0  0  0  0  0  0
    6.9759   -4.5867   24.6166 C   0  0  0  0  0  0  0  0  0  0  0  0
    6.1800   -5.2936   23.5598 C   0  0  0  0  0  0  0  0  0  0  0  0
    4.7233   -5.6422   23.6388 C   0  0  0  0  0  0  0  0  0  0  0  0
    4.3440   -6.3401   22.3663 O   0  0  0  0  0  0  0  0  0  0  0  0
    5.5665   -6.4228   21.5009 C   0  0  0  0  0  0  0  0  0  0  0  0
    6.7012   -5.7761   22.2386 N   0  0  0  0  0  0  0  0  0  0  0  0
  2  1  1  0  0  0
  2  3  1  0  0  0
  3  4  1  0  0  0
  4 19  1  0  0  0
 19 20  2  0  0  0
 20 21  1  0  0  0
 21 22  2  0  0  0
 22 23  1  0  0  0
 23 24  2  0  0  0
 24 25  1  0  0  0
 25 26  2  0  0  0
 26 27  1  0  0  0
 27 28  2  0  0  0
  4  5  1  0  0  0
  5  6  2  0  0  0
  5  7  1  0  0  0
  7  8  1  0  0  0
  8  9  1  0  0  0
  9 29  1  0  0  0
 29 30  1  0  0  0
 30 31  2  0  0  0
 31 32  1  0  0  0
 32 33  1  0  0  0
 33 34  2  0  0  0
  9 10  1  0  0  0
 10 11  2  0  0  0
 10 12  1  0  0  0
 12 13  2  0  0  0
 13 14  1  0  0  0
 14 15  2  0  0  0
 15 16  1  0  0  0
 15 17  1  0  0  0
 17 18  2  0  0  0
  7  2  1  0  0  0
 34 30  1  0  0  0
 18 12  1  0  0  0
 28 19  1  0  0  0
 18  7  1  0  0  0
 28 23  1  0  0  0
M  END
> <minimizedAffinity>
-9.32335

> <CNNscore>
0.3805596232

> <CNNaffinity>
6.6135969162

> <CNN_VS>
2.5168678761

> <CNNaffinity_variance>
0.1285370886

$$$$



 34 39  0  0  0  0  0  0  0  0999 V2000
    6.1404   -5.0876   22.5510 C   0  0  0  0  0  0  0  0  0  0  0  0
    6.7382   -4.2032   23.6048 C   0  0  0  0  0  0  0  0  0  0  0  0
    7.9501   -3.4740   23.1051 C   0  0  0  0  0  0  0  0  0  0  0  0
    8.4721   -2.6216   24.2236 N   0  0  0  0  0  0  0  0  0  0  0  0
    7.5829   -2.8241   25.4145 C   0  0  0  0  0  0  0  0  0  0  0  0
    7.7380   -2.1647   26.7529 O   0  0  0  0  0  0  0  0  0  0  0  0
    6.5113   -3.8015   25.0321 C   0  0  0  0  0  0  0  0  0  0  0  0
    6.4110   -3.3082   26.4451 C   0  0  0  0  0  0  0  0  0  0  0  0
    5.3064   -3.7980   27.3339 N   0  0  0  0  0  0  0  0  0  0  0  0
    4.3020   -4.7810   26.8097 C   0  0  0  0  0  0  0  0  0  0  0  0
    3.1974   -5.2708   27.6984 O   0  0  0  0  0  0  0  0  0  0  0  0
    4.4022   -5.2743   25.3966 C   0  0  0  0  0  0  0  0  0  0  0  0
    3.3979   -6.2574   24.8724 C   0  0  0  0  0  0  0  0  0  0  0  0
    3.4981   -6.7506   23.4594 C   0  0  0  0  0  0  0  0  0  0  0  0
    4.6027   -6.2609   22.5706 C   0  0  0  0  0  0  0  0  0  0  0  0
    4.7029   -6.7542   21.1575 F   0  0  0  0  0  0  0  0  0  0  0  0
    5.6071   -5.2778   23.0948 C   0  0  0  0  0  0  0  0  0  0  0  0
    5.5069   -4.7846   24.5078 C   0  0  0  0  0  0  0  0  0  0  0  0
    9.6726   -1.7244   24.1620 C   0  0  0  0  0  0  0  0  0  0  0  0
    9.6238   -0.4607   23.3555 C   0  0  0  0  0  0  0  0  0  0  0  0
   10.8243    0.4366   23.2939 N   0  0  0  0  0  0  0  0  0  0  0  0
   12.0736    0.0700   24.0388 C   0  0  0  0  0  0  0  0  0  0  0  0
   12.1223   -1.1938   24.8454 C   0  0  0  0  0  0  0  0  0  0  0  0
   13.3717   -1.5604   25.5903 C   0  0  0  0  0  0  0  0  0  0  0  0
   13.4204   -2.8242   26.3968 C   0  0  0  0  0  0  0  0  0  0  0  0
   12.2199   -3.7213   26.4584 C   0  0  0  0  0  0  0  0  0  0  0  0
   10.9707   -3.3548   25.7134 C   0  0  0  0  0  0  0  0  0  0  0  0
   10.9219   -2.0910   24.9070 C   0  0  0  0  0  0  0  0  0  0  0  0
    5.2062   -3.3047   28.7469 C   0  0  0  0  0  0  0  0  0  0  0  0
    5.1578   -1.8316   29.0254 C   0  0  0  0  0  0  0  0  0  0  0  0
    5.5902   -1.1596   30.2948 C   0  0  0  0  0  0  0  0  0  0  0  0
    5.3681    0.3155   30.1373 O   0  0  0  0  0  0  0  0  0  0  0  0
    4.7984    0.5552   28.7705 C   0  0  0  0  0  0  0  0  0  0  0  0
    4.6684   -0.7718   28.0833 N   0  0  0  0  0  0  0  0  0  0  0  0
  2  1  1  0  0  0
  2  3  1  0  0  0
  3  4  1  0  0  0
  4 19  1  0  0  0
 19 20  2  0  0  0
 20 21  1  0  0  0
 21 22  2  0  0  0
 22 23  1  0  0  0
 23 24  2  0  0  0
 24 25  1  0  0  0
 25 26  2  0  0  0
 26 27  1  0  0  0
 27 28  2  0  0  0
  4  5  1  0  0  0
  5  6  2  0  0  0
  5  7  1  0  0  0
  7  8  1  0  0  0
  8  9  1  0  0  0
  9 29  1  0  0  0
 29 30  1  0  0  0
 30 31  2  0  0  0
 31 32  1  0  0  0
 32 33  1  0  0  0
 33 34  2  0  0  0
  9 10  1  0  0  0
 10 11  2  0  0  0
 10 12  1  0  0  0
 12 13  2  0  0  0
 13 14  1  0  0  0
 14 15  2  0  0  0
 15 16  1  0  0  0
 15 17  1  0  0  0
 17 18  2  0  0  0
  7  2  1  0  0  0
 34 30  1  0  0  0
 18 12  1  0  0  0
 28 19  1  0  0  0
 18  7  1  0  0  0
 28 23  1  0  0  0
M  END
> <minimizedAffinity>
-7.60671

> <CNNscore>
0.3436273038

> <CNNaffinity>
6.4211797714

> <CNN_VS>
2.2064926624

> <CNNaffinity_variance>
0.1324517429

$$$$



 34 39  0  0  0  0  0  0  0  0999 V2000
   10.2949   -2.8318   26.1308 C   0  0  0  0  0  0  0  0  0  0  0  0
    9.2168   -1.8581   25.7566 C   0  0  0  0  0  0  0  0  0  0  0  0
    7.8851   -2.2483   26.3261 C   0  0  0  0  0  0  0  0  0  0  0  0
    6.8795   -1.2203   25.8994 N   0  0  0  0  0  0  0  0  0  0  0  0
    7.5898   -0.1948   25.0664 C   0  0  0  0  0  0  0  0  0  0  0  0
    6.9651    1.0128   24.4328 O   0  0  0  0  0  0  0  0  0  0  0  0
    9.0343   -0.5891   24.9781 C   0  0  0  0  0  0  0  0  0  0  0  0
    8.7003    0.6733   24.2400 C   0  0  0  0  0  0  0  0  0  0  0  0
    9.7738    1.4175   23.5027 N   0  0  0  0  0  0  0  0  0  0  0  0
   11.1815    0.8993   23.5035 C   0  0  0  0  0  0  0  0  0  0  0  0
   12.2550    1.6435   22.7662 O   0  0  0  0  0  0  0  0  0  0  0  0
   11.5156   -0.3631   24.2416 C   0  0  0  0  0  0  0  0  0  0  0  0
   12.9232   -0.8812   24.2424 C   0  0  0  0  0  0  0  0  0  0  0  0
   13.2573   -2.1436   24.9805 C   0  0  0  0  0  0  0  0  0  0  0  0
   12.1837   -2.8878   25.7178 C   0  0  0  0  0  0  0  0  0  0  0  0
   12.5179   -4.1502   26.4559 F   0  0  0  0  0  0  0  0  0  0  0  0
   10.7761   -2.3696   25.7170 C   0  0  0  0  0  0  0  0  0  0  0  0
   10.4420   -1.1073   24.9789 C   0  0  0  0  0  0  0  0  0  0  0  0
    5.4199   -1.2181   26.2452 C   0  0  0  0  0  0  0  0  0  0  0  0
    4.4269   -0.6050   25.3029 C   0  0  0  0  0  0  0  0  0  0  0  0
    2.9673   -0.6028   25.6486 N   0  0  0  0  0  0  0  0  0  0  0  0
    2.5007   -1.2137   26.9367 C   0  0  0  0  0  0  0  0  0  0  0  0
    3.4938   -1.8268   27.8790 C   0  0  0  0  0  0  0  0  0  0  0  0
    3.0272   -2.4377   29.1672 C   0  0  0  0  0  0  0  0  0  0  0  0
    4.0204   -3.0507   30.1095 C   0  0  0  0  0  0  0  0  0  0  0  0
    5.4799   -3.0529   29.7637 C   0  0  0  0  0  0  0  0  0  0  0  0
    5.9464   -2.4420   28.4756 C   0  0  0  0  0  0  0  0  0  0  0  0
    4.9534   -1.8290   27.5333 C   0  0  0  0  0  0  0  0  0  0  0  0
    9.4397    2.6799   22.7646 C   0  0  0  0  0  0  0  0  0  0  0  0
    8.0205    2.9662   22.3725 C   0  0  0  0  0  0  0  0  0  0  0  0
    7.1228    3.9922   22.9982 C   0  0  0  0  0  0  0  0  0  0  0  0
    5.7972    3.9369   22.2984 O   0  0  0  0  0  0  0  0  0  0  0  0
    5.8756    2.8767   21.2401 C   0  0  0  0  0  0  0  0  0  0  0  0
    7.2497    2.2768   21.2860 N   0  0  0  0  0  0  0  0  0  0  0  0
  2  1  1  0  0  0
  2  3  1  0  0  0
  3  4  1  0  0  0
  4 19  1  0  0  0
 19 20  2  0  0  0
 20 21  1  0  0  0
 21 22  2  0  0  0
 22 23  1  0  0  0
 23 24  2  0  0  0
 24 25  1  0  0  0
 25 26  2  0  0  0
 26 27  1  0  0  0
 27 28  2  0  0  0
  4  5  1  0  0  0
  5  6  2  0  0  0
  5  7  1  0  0  0
  7  8  1  0  0  0
  8  9  1  0  0  0
  9 29  1  0  0  0
 29 30  1  0  0  0
 30 31  2  0  0  0
 31 32  1  0  0  0
 32 33  1  0  0  0
 33 34  2  0  0  0
  9 10  1  0  0  0
 10 11  2  0  0  0
 10 12  1  0  0  0
 12 13  2  0  0  0
 13 14  1  0  0  0
 14 15  2  0  0  0
 15 16  1  0  0  0
 15 17  1  0  0  0
 17 18  2  0  0  0
  7  2  1  0  0  0
 34 30  1  0  0  0
 18 12  1  0  0  0
 28 19  1  0  0  0
 18  7  1  0  0  0
 28 23  1  0  0  0
M  END
> <minimizedAffinity>
-7.75428

> <CNNscore>
0.3298872411

> <CNNaffinity>
6.4170694351

> <CNN_VS>
2.1169092655

> <CNNaffinity_variance>
0.2864657938

$$$$



 34 39  0  0  0  0  0  0  0  0999 V2000
   10.4316   -2.8440   24.3700 C   0  0  0  0  0  0  0  0  0  0  0  0
    9.0126   -2.7233   23.8988 C   0  0  0  0  0  0  0  0  0  0  0  0
    8.1935   -3.9242   24.2692 C   0  0  0  0  0  0  0  0  0  0  0  0
    6.7996   -3.7101   23.7581 N   0  0  0  0  0  0  0  0  0  0  0  0
    6.7572   -2.3769   23.0719 C   0  0  0  0  0  0  0  0  0  0  0  0
    5.5577   -1.7617   22.4142 O   0  0  0  0  0  0  0  0  0  0  0  0
    8.1249   -1.7671   23.1589 C   0  0  0  0  0  0  0  0  0  0  0  0
    7.1219   -0.9155   22.4386 C   0  0  0  0  0  0  0  0  0  0  0  0
    7.5302    0.4167   21.8832 N   0  0  0  0  0  0  0  0  0  0  0  0
    8.9414    0.8974   22.0481 C   0  0  0  0  0  0  0  0  0  0  0  0
    9.3497    2.2296   21.4927 O   0  0  0  0  0  0  0  0  0  0  0  0
    9.9445    0.0459   22.7684 C   0  0  0  0  0  0  0  0  0  0  0  0
   11.3558    0.5266   22.9333 C   0  0  0  0  0  0  0  0  0  0  0  0
   12.3587   -0.3250   23.6536 C   0  0  0  0  0  0  0  0  0  0  0  0
   11.9505   -1.6572   24.2090 C   0  0  0  0  0  0  0  0  0  0  0  0
   12.9535   -2.5087   24.9294 F   0  0  0  0  0  0  0  0  0  0  0  0
   10.5392   -2.1379   24.0441 C   0  0  0  0  0  0  0  0  0  0  0  0
    9.5362   -1.2864   23.3238 C   0  0  0  0  0  0  0  0  0  0  0  0
    5.6500   -4.6620   23.9070 C   0  0  0  0  0  0  0  0  0  0  0  0
    5.1487   -5.4246   22.7166 C   0  0  0  0  0  0  0  0  0  0  0  0
    3.9991   -6.3765   22.8655 N   0  0  0  0  0  0  0  0  0  0  0  0
    3.3508   -6.5658   24.2049 C   0  0  0  0  0  0  0  0  0  0  0  0
    3.8521   -5.8032   25.3953 C   0  0  0  0  0  0  0  0  0  0  0  0
    3.2038   -5.9925   26.7347 C   0  0  0  0  0  0  0  0  0  0  0  0
    3.7052   -5.2299   27.9250 C   0  0  0  0  0  0  0  0  0  0  0  0
    4.8547   -4.2780   27.7761 C   0  0  0  0  0  0  0  0  0  0  0  0
    5.5030   -4.0887   26.4367 C   0  0  0  0  0  0  0  0  0  0  0  0
    5.0018   -4.8513   25.2464 C   0  0  0  0  0  0  0  0  0  0  0  0
    6.5271    1.2682   21.1628 C   0  0  0  0  0  0  0  0  0  0  0  0
    6.0347    0.8613   19.8057 C   0  0  0  0  0  0  0  0  0  0  0  0
    6.6577   -0.1725   18.9152 C   0  0  0  0  0  0  0  0  0  0  0  0
    5.8408   -0.2561   17.6599 O   0  0  0  0  0  0  0  0  0  0  0  0
    4.7129    0.7261   17.7746 C   0  0  0  0  0  0  0  0  0  0  0  0
    4.8327    1.4167   19.1008 N   0  0  0  0  0  0  0  0  0  0  0  0
  2  1  1  0  0  0
  2  3  1  0  0  0
  3  4  1  0  0  0
  4 19  1  0  0  0
 19 20  2  0  0  0
 20 21  1  0  0  0
 21 22  2  0  0  0
 22 23  1  0  0  0
 23 24  2  0  0  0
 24 25  1  0  0  0
 25 26  2  0  0  0
 26 27  1  0  0  0
 27 28  2  0  0  0
  4  5  1  0  0  0
  5  6  2  0  0  0
  5  7  1  0  0  0
  7  8  1  0  0  0
  8  9  1  0  0  0
  9 29  1  0  0  0
 29 30  1  0  0  0
 30 31  2  0  0  0
 31 32  1  0  0  0
 32 33  1  0  0  0
 33 34  2  0  0  0
  9 10  1  0  0  0
 10 11  2  0  0  0
 10 12  1  0  0  0
 12 13  2  0  0  0
 13 14  1  0  0  0
 14 15  2  0  0  0
 15 16  1  0  0  0
 15 17  1  0  0  0
 17 18  2  0  0  0
  7  2  1  0  0  0
 34 30  1  0  0  0
 18 12  1  0  0  0
 28 19  1  0  0  0
 18  7  1  0  0  0
 28 23  1  0  0  0
M  END
> <minimizedAffinity>
-8.99615

> <CNNscore>
0.3159705997

> <CNNaffinity>
6.4587502480

> <CNN_VS>
2.0407752991

> <CNNaffinity_variance>
0.1794530600

$$$$
