


 25 28  0  0  0  0  0  0  0  0999 V2000
    7.0757    2.4595   24.9334 C   0  0  0  0  0  0  0  0  0  0  0  0
    7.0156    0.9729   25.1239 C   0  0  0  0  0  0  0  0  0  0  0  0
    6.1758    0.2464   26.1324 C   0  0  0  0  0  0  0  0  0  0  0  0
    6.4259   -1.2238   25.9711 C   0  0  0  0  0  0  0  0  0  0  0  0
    7.4203   -1.4060   24.8629 N   0  0  0  0  0  0  0  0  0  0  0  0
    7.9561   -2.7158   24.3656 C   0  0  0  0  0  0  0  0  0  0  0  0
    7.4967   -3.9998   24.9904 O   0  0  0  0  0  0  0  0  0  0  0  0
    7.7847   -0.0484   24.3393 C   0  0  0  0  0  0  0  0  0  0  0  0
    5.7928   -2.3194   26.7766 C   0  0  0  0  0  0  0  0  0  0  0  0
    4.5545   -3.0003   26.2738 C   0  0  0  0  0  0  0  0  0  0  0  0
    3.9214   -4.0959   27.0793 C   0  0  0  0  0  0  0  0  0  0  0  0
    4.5266   -4.5106   28.3876 C   0  0  0  0  0  0  0  0  0  0  0  0
    5.7649   -3.8296   28.8905 C   0  0  0  0  0  0  0  0  0  0  0  0
    6.3980   -2.7340   28.0850 C   0  0  0  0  0  0  0  0  0  0  0  0
    8.9512   -2.7416   23.2436 C   0  0  0  0  0  0  0  0  0  0  0  0
   10.2299   -1.9657   23.3572 C   0  0  0  0  0  0  0  0  0  0  0  0
   10.5289   -0.8658   22.3821 C   0  0  0  0  0  0  0  0  0  0  0  0
   11.8076   -0.0899   22.4958 N   0  0  0  0  0  0  0  0  0  0  0  0
   12.7873   -0.4139   23.5844 C   0  0  0  0  0  0  0  0  0  0  0  0
   12.4883   -1.5138   24.5595 C   0  0  0  0  0  0  0  0  0  0  0  0
   13.4680   -1.8378   25.6482 C   0  0  0  0  0  0  0  0  0  0  0  0
   13.1690   -2.9377   26.6233 C   0  0  0  0  0  0  0  0  0  0  0  0
   11.8903   -3.7136   26.5097 C   0  0  0  0  0  0  0  0  0  0  0  0
   10.9106   -3.3896   25.4210 C   0  0  0  0  0  0  0  0  0  0  0  0
   11.2096   -2.2898   24.4459 C   0  0  0  0  0  0  0  0  0  0  0  0
  2  1  1  0  0  0
  2  3  1  0  0  0
  3  4  1  0  0  0
  4  9  1  0  0  0
  9 10  2  0  0  0
 10 11  1  0  0  0
 11 12  2  0  0  0
 12 13  1  0  0  0
 13 14  2  0  0  0
  4  5  1  0  0  0
  5  6  1  0  0  0
  6  7  2  0  0  0
  6 15  1  0  0  0
 15 16  1  0  0  0
 16 17  2  0  0  0
 17 18  1  0  0  0
 18 19  2  0  0  0
 19 20  1  0  0  0
 20 21  2  0  0  0
 21 22  1  0  0  0
 22 23  2  0  0  0
 23 24  1  0  0  0
 24 25  2  0  0  0
  5  8  1  0  0  0
  8  2  1  0  0  0
 14  9  1  0  0  0
 25 16  1  0  0  0
 25 20  1  0  0  0
M  END
> <minimizedAffinity>
-6.78278

> <CNNscore>
0.7555946112

> <CNNaffinity>
5.9985389709

> <CNN_VS>
4.5324635506

> <CNNaffinity_variance>
0.0415081568

$$$$



 25 28  0  0  0  0  0  0  0  0999 V2000
    3.4603   -6.5876   24.1163 C   0  0  0  0  0  0  0  0  0  0  0  0
    4.3244   -5.6125   24.8596 C   0  0  0  0  0  0  0  0  0  0  0  0
    3.9172   -4.8104   26.0600 C   0  0  0  0  0  0  0  0  0  0  0  0
    5.0886   -3.9705   26.4753 C   0  0  0  0  0  0  0  0  0  0  0  0
    6.2197   -4.2534   25.5316 N   0  0  0  0  0  0  0  0  0  0  0  0
    7.5836   -3.6309   25.5783 C   0  0  0  0  0  0  0  0  0  0  0  0
    7.9130   -2.6250   26.6412 O   0  0  0  0  0  0  0  0  0  0  0  0
    5.7474   -5.2682   24.5331 C   0  0  0  0  0  0  0  0  0  0  0  0
    5.1228   -3.0153   27.6314 C   0  0  0  0  0  0  0  0  0  0  0  0
    4.8257   -1.5616   27.4122 C   0  0  0  0  0  0  0  0  0  0  0  0
    4.8599   -0.6064   28.5683 C   0  0  0  0  0  0  0  0  0  0  0  0
    5.1913   -1.1050   29.9436 C   0  0  0  0  0  0  0  0  0  0  0  0
    5.4885   -2.5588   30.1628 C   0  0  0  0  0  0  0  0  0  0  0  0
    5.4543   -3.5140   29.0068 C   0  0  0  0  0  0  0  0  0  0  0  0
    8.6182   -4.0142   24.5620 C   0  0  0  0  0  0  0  0  0  0  0  0
    9.4890   -2.9607   23.9442 C   0  0  0  0  0  0  0  0  0  0  0  0
    9.0259   -2.2279   22.7201 C   0  0  0  0  0  0  0  0  0  0  0  0
    9.8968   -1.1744   22.1023 N   0  0  0  0  0  0  0  0  0  0  0  0
   11.2308   -0.8538   22.7085 C   0  0  0  0  0  0  0  0  0  0  0  0
   11.6940   -1.5866   23.9327 C   0  0  0  0  0  0  0  0  0  0  0  0
   13.0280   -1.2660   24.5389 C   0  0  0  0  0  0  0  0  0  0  0  0
   13.4911   -1.9988   25.7630 C   0  0  0  0  0  0  0  0  0  0  0  0
   12.6202   -3.0523   26.3808 C   0  0  0  0  0  0  0  0  0  0  0  0
   11.2862   -3.3729   25.7746 C   0  0  0  0  0  0  0  0  0  0  0  0
   10.8231   -2.6401   24.5505 C   0  0  0  0  0  0  0  0  0  0  0  0
  2  1  1  0  0  0
  2  3  1  0  0  0
  3  4  1  0  0  0
  4  9  1  0  0  0
  9 10  2  0  0  0
 10 11  1  0  0  0
 11 12  2  0  0  0
 12 13  1  0  0  0
 13 14  2  0  0  0
  4  5  1  0  0  0
  5  6  1  0  0  0
  6  7  2  0  0  0
  6 15  1  0  0  0
 15 16  1  0  0  0
 16 17  2  0  0  0
 17 18  1  0  0  0
 18 19  2  0  0  0
 19 20  1  0  0  0
 20 21  2  0  0  0
 21 22  1  0  0  0
 22 23  2  0  0  0
 23 24  1  0  0  0
 24 25  2  0  0  0
  5  8  1  0  0  0
  8  2  1  0  0  0
 14  9  1  0  0  0
 25 16  1  0  0  0
 25 20  1  0  0  0
M  END
> <minimizedAffinity>
-6.79491

> <CNNscore>
0.6841225028

> <CNNaffinity>
5.8573489189

> <CNN_VS>
4.0071439743

> <CNNaffinity_variance>
0.2104924619

$$$$



 25 28  0  0  0  0  0  0  0  0999 V2000
    4.4746   -2.0022   28.5095 C   0  0  0  0  0  0  0  0  0  0  0  0
    5.3429   -2.6846   27.4945 C   0  0  0  0  0  0  0  0  0  0  0  0
    4.8654   -3.4208   26.2780 C   0  0  0  0  0  0  0  0  0  0  0  0
    6.0687   -3.9417   25.5494 C   0  0  0  0  0  0  0  0  0  0  0  0
    7.2899   -3.5275   26.3156 N   0  0  0  0  0  0  0  0  0  0  0  0
    8.7102   -3.8361   25.9448 C   0  0  0  0  0  0  0  0  0  0  0  0
    9.0068   -4.6280   24.7058 O   0  0  0  0  0  0  0  0  0  0  0  0
    6.8413   -2.7505   27.5177 C   0  0  0  0  0  0  0  0  0  0  0  0
    6.0534   -4.7373   24.2778 C   0  0  0  0  0  0  0  0  0  0  0  0
    6.4155   -6.1927   24.2993 C   0  0  0  0  0  0  0  0  0  0  0  0
    6.4002   -6.9882   23.0277 C   0  0  0  0  0  0  0  0  0  0  0  0
    6.0228   -6.3283   21.7346 C   0  0  0  0  0  0  0  0  0  0  0  0
    5.6606   -4.8729   21.7131 C   0  0  0  0  0  0  0  0  0  0  0  0
    5.6759   -4.0773   22.9847 C   0  0  0  0  0  0  0  0  0  0  0  0
    9.8339   -3.3528   26.8129 C   0  0  0  0  0  0  0  0  0  0  0  0
   11.0609   -2.7571   26.1889 C   0  0  0  0  0  0  0  0  0  0  0  0
   12.4091   -3.3521   26.4689 C   0  0  0  0  0  0  0  0  0  0  0  0
   13.6361   -2.7564   25.8449 N   0  0  0  0  0  0  0  0  0  0  0  0
   13.5151   -1.5657   24.9408 C   0  0  0  0  0  0  0  0  0  0  0  0
   12.1669   -0.9706   24.6607 C   0  0  0  0  0  0  0  0  0  0  0  0
   12.0459    0.2201   23.7565 C   0  0  0  0  0  0  0  0  0  0  0  0
   10.6978    0.8151   23.4765 C   0  0  0  0  0  0  0  0  0  0  0  0
    9.4707    0.2194   24.1005 C   0  0  0  0  0  0  0  0  0  0  0  0
    9.5917   -0.9713   25.0047 C   0  0  0  0  0  0  0  0  0  0  0  0
   10.9398   -1.5663   25.2847 C   0  0  0  0  0  0  0  0  0  0  0  0
  2  1  1  0  0  0
  2  3  1  0  0  0
  3  4  1  0  0  0
  4  9  1  0  0  0
  9 10  2  0  0  0
 10 11  1  0  0  0
 11 12  2  0  0  0
 12 13  1  0  0  0
 13 14  2  0  0  0
  4  5  1  0  0  0
  5  6  1  0  0  0
  6  7  2  0  0  0
  6 15  1  0  0  0
 15 16  1  0  0  0
 16 17  2  0  0  0
 17 18  1  0  0  0
 18 19  2  0  0  0
 19 20  1  0  0  0
 20 21  2  0  0  0
 21 22  1  0  0  0
 22 23  2  0  0  0
 23 24  1  0  0  0
 24 25  2  0  0  0
  5  8  1  0  0  0
  8  2  1  0  0  0
 14  9  1  0  0  0
 25 16  1  0  0  0
 25 20  1  0  0  0
M  END
> <minimizedAffinity>
-7.31146

> <CNNscore>
0.6630261540

> <CNNaffinity>
5.9280190468

> <CNN_VS>
3.9304316044

> <CNNaffinity_variance>
0.1143759713

$$$$



 25 28  0  0  0  0  0  0  0  0999 V2000
    6.7585   -3.0783   26.9441 C   0  0  0  0  0  0  0  0  0  0  0  0
    7.3514   -2.4279   25.7294 C   0  0  0  0  0  0  0  0  0  0  0  0
    8.7605   -1.9321   25.5938 C   0  0  0  0  0  0  0  0  0  0  0  0
    8.9191   -1.3568   24.2176 C   0  0  0  0  0  0  0  0  0  0  0  0
    7.6080   -1.4972   23.5026 N   0  0  0  0  0  0  0  0  0  0  0  0
    7.3169   -1.0534   22.0996 C   0  0  0  0  0  0  0  0  0  0  0  0
    8.3918   -0.4021   21.2807 O   0  0  0  0  0  0  0  0  0  0  0  0
    6.6391   -2.1591   24.4369 C   0  0  0  0  0  0  0  0  0  0  0  0
   10.1694   -0.7481   23.6551 C   0  0  0  0  0  0  0  0  0  0  0  0
   11.2233   -1.6257   23.0478 C   0  0  0  0  0  0  0  0  0  0  0  0
   12.4736   -1.0171   22.4854 C   0  0  0  0  0  0  0  0  0  0  0  0
   12.6699    0.4693   22.5303 C   0  0  0  0  0  0  0  0  0  0  0  0
   11.6160    1.3471   23.1376 C   0  0  0  0  0  0  0  0  0  0  0  0
   10.3657    0.7384   23.7000 C   0  0  0  0  0  0  0  0  0  0  0  0
    5.9510   -1.2610   21.5155 C   0  0  0  0  0  0  0  0  0  0  0  0
    5.5538   -0.5393   20.2619 C   0  0  0  0  0  0  0  0  0  0  0  0
    6.0948   -0.9857   18.9361 C   0  0  0  0  0  0  0  0  0  0  0  0
    5.6976   -0.2641   17.6825 N   0  0  0  0  0  0  0  0  0  0  0  0
    4.7593    0.9040   17.7548 C   0  0  0  0  0  0  0  0  0  0  0  0
    4.2182    1.3504   19.0807 C   0  0  0  0  0  0  0  0  0  0  0  0
    3.2799    2.5185   19.1530 C   0  0  0  0  0  0  0  0  0  0  0  0
    2.7389    2.9649   20.4789 C   0  0  0  0  0  0  0  0  0  0  0  0
    3.1361    2.2432   21.7325 C   0  0  0  0  0  0  0  0  0  0  0  0
    4.0744    1.0752   21.6602 C   0  0  0  0  0  0  0  0  0  0  0  0
    4.6154    0.6288   20.3343 C   0  0  0  0  0  0  0  0  0  0  0  0
  2  1  1  0  0  0
  2  3  1  0  0  0
  3  4  1  0  0  0
  4  9  1  0  0  0
  9 10  2  0  0  0
 10 11  1  0  0  0
 11 12  2  0  0  0
 12 13  1  0  0  0
 13 14  2  0  0  0
  4  5  1  0  0  0
  5  6  1  0  0  0
  6  7  2  0  0  0
  6 15  1  0  0  0
 15 16  1  0  0  0
 16 17  2  0  0  0
 17 18  1  0  0  0
 18 19  2  0  0  0
 19 20  1  0  0  0
 20 21  2  0  0  0
 21 22  1  0  0  0
 22 23  2  0  0  0
 23 24  1  0  0  0
 24 25  2  0  0  0
  5  8  1  0  0  0
  8  2  1  0  0  0
 14  9  1  0  0  0
 25 16  1  0  0  0
 25 20  1  0  0  0
M  END
> <minimizedAffinity>
-7.60939

> <CNNscore>
0.6119757295

> <CNNaffinity>
5.6759366989

> <CNN_VS>
3.4735355377

> <CNNaffinity_variance>
0.1671534479

$$$$



 25 28  0  0  0  0  0  0  0  0999 V2000
   12.9505   -1.5618   23.2683 C   0  0  0  0  0  0  0  0  0  0  0  0
   11.4544   -1.6683   23.2891 C   0  0  0  0  0  0  0  0  0  0  0  0
   10.6480   -2.5903   24.1549 C   0  0  0  0  0  0  0  0  0  0  0  0
    9.1973   -2.3633   23.8486 C   0  0  0  0  0  0  0  0  0  0  0  0
    9.1070   -1.3010   22.7935 N   0  0  0  0  0  0  0  0  0  0  0  0
    7.8436   -0.7627   22.1901 C   0  0  0  0  0  0  0  0  0  0  0  0
    6.5136   -1.2920   22.6383 O   0  0  0  0  0  0  0  0  0  0  0  0
   10.5020   -0.8715   22.4477 C   0  0  0  0  0  0  0  0  0  0  0  0
    8.0400   -3.0738   24.4856 C   0  0  0  0  0  0  0  0  0  0  0  0
    7.4568   -4.2921   23.8334 C   0  0  0  0  0  0  0  0  0  0  0  0
    6.2996   -5.0027   24.4704 C   0  0  0  0  0  0  0  0  0  0  0  0
    5.7254   -4.4949   25.7598 C   0  0  0  0  0  0  0  0  0  0  0  0
    6.3086   -3.2766   26.4121 C   0  0  0  0  0  0  0  0  0  0  0  0
    7.4658   -2.5660   25.7751 C   0  0  0  0  0  0  0  0  0  0  0  0
    7.9102    0.3049   21.1386 C   0  0  0  0  0  0  0  0  0  0  0  0
    6.8435    0.3900   20.0875 C   0  0  0  0  0  0  0  0  0  0  0  0
    6.8923   -0.5175   18.8942 C   0  0  0  0  0  0  0  0  0  0  0  0
    5.8256   -0.4324   17.8431 N   0  0  0  0  0  0  0  0  0  0  0  0
    4.7100    0.5601   17.9853 C   0  0  0  0  0  0  0  0  0  0  0  0
    4.6611    1.4677   19.1786 C   0  0  0  0  0  0  0  0  0  0  0  0
    3.5455    2.4603   19.3209 C   0  0  0  0  0  0  0  0  0  0  0  0
    3.4967    3.3677   20.5142 C   0  0  0  0  0  0  0  0  0  0  0  0
    4.5635    3.2827   21.5653 C   0  0  0  0  0  0  0  0  0  0  0  0
    5.6790    2.2901   21.4230 C   0  0  0  0  0  0  0  0  0  0  0  0
    5.7279    1.3826   20.2297 C   0  0  0  0  0  0  0  0  0  0  0  0
  2  1  1  0  0  0
  2  3  1  0  0  0
  3  4  1  0  0  0
  4  9  1  0  0  0
  9 10  2  0  0  0
 10 11  1  0  0  0
 11 12  2  0  0  0
 12 13  1  0  0  0
 13 14  2  0  0  0
  4  5  1  0  0  0
  5  6  1  0  0  0
  6  7  2  0  0  0
  6 15  1  0  0  0
 15 16  1  0  0  0
 16 17  2  0  0  0
 17 18  1  0  0  0
 18 19  2  0  0  0
 19 20  1  0  0  0
 20 21  2  0  0  0
 21 22  1  0  0  0
 22 23  2  0  0  0
 23 24  1  0  0  0
 24 25  2  0  0  0
  5  8  1  0  0  0
  8  2  1  0  0  0
 14  9  1  0  0  0
 25 16  1  0  0  0
 25 20  1  0  0  0
M  END
> <minimizedAffinity>
-7.42144

> <CNNscore>
0.5977343321

> <CNNaffinity>
5.7900338173

> <CNN_VS>
3.4609019756

> <CNNaffinity_variance>
0.0297487676

$$$$



 25 28  0  0  0  0  0  0  0  0999 V2000
   11.9865    4.0666   23.3890 C   0  0  0  0  0  0  0  0  0  0  0  0
   10.9582    3.0174   23.0865 C   0  0  0  0  0  0  0  0  0  0  0  0
    9.4823    3.2445   22.9440 C   0  0  0  0  0  0  0  0  0  0  0  0
    8.8372    1.9242   22.6427 C   0  0  0  0  0  0  0  0  0  0  0  0
    9.9142    0.8812   22.5990 N   0  0  0  0  0  0  0  0  0  0  0  0
    9.7154   -0.5808   22.3285 C   0  0  0  0  0  0  0  0  0  0  0  0
    8.3378   -1.1151   22.0699 O   0  0  0  0  0  0  0  0  0  0  0  0
   11.2251    1.5568   22.8732 C   0  0  0  0  0  0  0  0  0  0  0  0
    7.3721    1.6885   22.4237 C   0  0  0  0  0  0  0  0  0  0  0  0
    6.7886    1.8206   21.0482 C   0  0  0  0  0  0  0  0  0  0  0  0
    5.3235    1.5848   20.8292 C   0  0  0  0  0  0  0  0  0  0  0  0
    4.4419    1.2169   21.9856 C   0  0  0  0  0  0  0  0  0  0  0  0
    5.0254    1.0848   23.3611 C   0  0  0  0  0  0  0  0  0  0  0  0
    6.4904    1.3205   23.5802 C   0  0  0  0  0  0  0  0  0  0  0  0
   10.8941   -1.5084   22.3166 C   0  0  0  0  0  0  0  0  0  0  0  0
   11.6262   -1.8073   23.5912 C   0  0  0  0  0  0  0  0  0  0  0  0
   13.0246   -1.3021   23.7891 C   0  0  0  0  0  0  0  0  0  0  0  0
   13.7567   -1.6010   25.0638 N   0  0  0  0  0  0  0  0  0  0  0  0
   13.0903   -2.4051   26.1405 C   0  0  0  0  0  0  0  0  0  0  0  0
   11.6919   -2.9103   25.9427 C   0  0  0  0  0  0  0  0  0  0  0  0
   11.0255   -3.7143   27.0195 C   0  0  0  0  0  0  0  0  0  0  0  0
    9.6271   -4.2195   26.8216 C   0  0  0  0  0  0  0  0  0  0  0  0
    8.8950   -3.9206   25.5469 C   0  0  0  0  0  0  0  0  0  0  0  0
    9.5614   -3.1165   24.4702 C   0  0  0  0  0  0  0  0  0  0  0  0
   10.9598   -2.6114   24.6680 C   0  0  0  0  0  0  0  0  0  0  0  0
  2  1  1  0  0  0
  2  3  1  0  0  0
  3  4  1  0  0  0
  4  9  1  0  0  0
  9 10  2  0  0  0
 10 11  1  0  0  0
 11 12  2  0  0  0
 12 13  1  0  0  0
 13 14  2  0  0  0
  4  5  1  0  0  0
  5  6  1  0  0  0
  6  7  2  0  0  0
  6 15  1  0  0  0
 15 16  1  0  0  0
 16 17  2  0  0  0
 17 18  1  0  0  0
 18 19  2  0  0  0
 19 20  1  0  0  0
 20 21  2  0  0  0
 21 22  1  0  0  0
 22 23  2  0  0  0
 23 24  1  0  0  0
 24 25  2  0  0  0
  5  8  1  0  0  0
  8  2  1  0  0  0
 14  9  1  0  0  0
 25 16  1  0  0  0
 25 20  1  0  0  0
M  END
> <minimizedAffinity>
-7.11187

> <CNNscore>
0.5912226439

> <CNNaffinity>
5.8863935471

> <CNN_VS>
3.4801690578

> <CNNaffinity_variance>
0.0963088125

$$$$



 25 28  0  0  0  0  0  0  0  0999 V2000
   12.8466   -1.5477   23.5095 C   0  0  0  0  0  0  0  0  0  0  0  0
   11.3595   -1.7112   23.4014 C   0  0  0  0  0  0  0  0  0  0  0  0
   10.5167   -2.6618   24.1989 C   0  0  0  0  0  0  0  0  0  0  0  0
    9.0904   -2.4908   23.7671 C   0  0  0  0  0  0  0  0  0  0  0  0
    9.0516   -1.4345   22.7028 N   0  0  0  0  0  0  0  0  0  0  0  0
    7.8257   -0.9459   21.9898 C   0  0  0  0  0  0  0  0  0  0  0  0
    6.4829   -1.5249   22.3239 O   0  0  0  0  0  0  0  0  0  0  0  0
   10.4540   -0.9527   22.4768 C   0  0  0  0  0  0  0  0  0  0  0  0
    7.9100   -3.2440   24.3052 C   0  0  0  0  0  0  0  0  0  0  0  0
    7.1728   -2.7257   25.5043 C   0  0  0  0  0  0  0  0  0  0  0  0
    5.9925   -3.4789   26.0424 C   0  0  0  0  0  0  0  0  0  0  0  0
    5.5493   -4.7503   25.3814 C   0  0  0  0  0  0  0  0  0  0  0  0
    6.2865   -5.2687   24.1823 C   0  0  0  0  0  0  0  0  0  0  0  0
    7.4668   -4.5155   23.6442 C   0  0  0  0  0  0  0  0  0  0  0  0
    7.9427    0.1217   20.9427 C   0  0  0  0  0  0  0  0  0  0  0  0
    6.8127    0.3604   19.9855 C   0  0  0  0  0  0  0  0  0  0  0  0
    6.7195   -0.4403   18.7205 C   0  0  0  0  0  0  0  0  0  0  0  0
    5.5895   -0.2017   17.7633 N   0  0  0  0  0  0  0  0  0  0  0  0
    4.5528    0.8377   18.0711 C   0  0  0  0  0  0  0  0  0  0  0  0
    4.6459    1.6385   19.3361 C   0  0  0  0  0  0  0  0  0  0  0  0
    3.6092    2.6779   19.6438 C   0  0  0  0  0  0  0  0  0  0  0  0
    3.7024    3.4786   20.9088 C   0  0  0  0  0  0  0  0  0  0  0  0
    4.8323    3.2399   21.8660 C   0  0  0  0  0  0  0  0  0  0  0  0
    5.8691    2.2005   21.5582 C   0  0  0  0  0  0  0  0  0  0  0  0
    5.7759    1.3998   20.2933 C   0  0  0  0  0  0  0  0  0  0  0  0
  2  1  1  0  0  0
  2  3  1  0  0  0
  3  4  1  0  0  0
  4  9  1  0  0  0
  9 10  2  0  0  0
 10 11  1  0  0  0
 11 12  2  0  0  0
 12 13  1  0  0  0
 13 14  2  0  0  0
  4  5  1  0  0  0
  5  6  1  0  0  0
  6  7  2  0  0  0
  6 15  1  0  0  0
 15 16  1  0  0  0
 16 17  2  0  0  0
 17 18  1  0  0  0
 18 19  2  0  0  0
 19 20  1  0  0  0
 20 21  2  0  0  0
 21 22  1  0  0  0
 22 23  2  0  0  0
 23 24  1  0  0  0
 24 25  2  0  0  0
  5  8  1  0  0  0
  8  2  1  0  0  0
 14  9  1  0  0  0
 25 16  1  0  0  0
 25 20  1  0  0  0
M  END
> <minimizedAffinity>
-7.35830

> <CNNscore>
0.5468884706

> <CNNaffinity>
5.6964020729

> <CNN_VS>
3.1152966022

> <CNNaffinity_variance>
0.0418966487

$$$$



 25 28  0  0  0  0  0  0  0  0999 V2000
   12.1253   -2.8966   26.3461 C   0  0  0  0  0  0  0  0  0  0  0  0
   10.8586   -3.1131   25.5724 C   0  0  0  0  0  0  0  0  0  0  0  0
    9.7981   -4.1274   25.8831 C   0  0  0  0  0  0  0  0  0  0  0  0
    8.7141   -3.9944   24.8549 C   0  0  0  0  0  0  0  0  0  0  0  0
    9.1046   -2.8980   23.9087 N   0  0  0  0  0  0  0  0  0  0  0  0
    8.3094   -2.4287   22.7266 C   0  0  0  0  0  0  0  0  0  0  0  0
    6.9933   -3.0724   22.4046 O   0  0  0  0  0  0  0  0  0  0  0  0
   10.4300   -2.3533   24.3521 C   0  0  0  0  0  0  0  0  0  0  0  0
    7.4597   -4.8141   24.7851 C   0  0  0  0  0  0  0  0  0  0  0  0
    6.1997   -4.3130   25.4262 C   0  0  0  0  0  0  0  0  0  0  0  0
    4.9453   -5.1326   25.3564 C   0  0  0  0  0  0  0  0  0  0  0  0
    4.9511   -6.4534   24.6455 C   0  0  0  0  0  0  0  0  0  0  0  0
    6.2111   -6.9546   24.0044 C   0  0  0  0  0  0  0  0  0  0  0  0
    7.4655   -6.1350   24.0742 C   0  0  0  0  0  0  0  0  0  0  0  0
    8.8302   -1.3156   21.8665 C   0  0  0  0  0  0  0  0  0  0  0  0
   10.1788   -0.7208   22.1448 C   0  0  0  0  0  0  0  0  0  0  0  0
   11.4093   -1.5726   22.0449 C   0  0  0  0  0  0  0  0  0  0  0  0
   12.7579   -0.9777   22.3232 N   0  0  0  0  0  0  0  0  0  0  0  0
   12.8759    0.4690   22.7016 C   0  0  0  0  0  0  0  0  0  0  0  0
   11.6453    1.3208   22.8016 C   0  0  0  0  0  0  0  0  0  0  0  0
   11.7632    2.7675   23.1800 C   0  0  0  0  0  0  0  0  0  0  0  0
   10.5326    3.6193   23.2799 C   0  0  0  0  0  0  0  0  0  0  0  0
    9.1841    3.0244   23.0016 C   0  0  0  0  0  0  0  0  0  0  0  0
    9.0661    1.5778   22.6232 C   0  0  0  0  0  0  0  0  0  0  0  0
   10.2967    0.7260   22.5232 C   0  0  0  0  0  0  0  0  0  0  0  0
  2  1  1  0  0  0
  2  3  1  0  0  0
  3  4  1  0  0  0
  4  9  1  0  0  0
  9 10  2  0  0  0
 10 11  1  0  0  0
 11 12  2  0  0  0
 12 13  1  0  0  0
 13 14  2  0  0  0
  4  5  1  0  0  0
  5  6  1  0  0  0
  6  7  2  0  0  0
  6 15  1  0  0  0
 15 16  1  0  0  0
 16 17  2  0  0  0
 17 18  1  0  0  0
 18 19  2  0  0  0
 19 20  1  0  0  0
 20 21  2  0  0  0
 21 22  1  0  0  0
 22 23  2  0  0  0
 23 24  1  0  0  0
 24 25  2  0  0  0
  5  8  1  0  0  0
  8  2  1  0  0  0
 14  9  1  0  0  0
 25 16  1  0  0  0
 25 20  1  0  0  0
M  END
> <minimizedAffinity>
-7.46870

> <CNNscore>
0.5222921371

> <CNNaffinity>
5.7551383972

> <CNN_VS>
3.0058634281

> <CNNaffinity_variance>
0.0680516511

$$$$



 25 28  0  0  0  0  0  0  0  0999 V2000
    5.8997   -0.5355   27.3213 C   0  0  0  0  0  0  0  0  0  0  0  0
    6.0628   -0.5619   25.8304 C   0  0  0  0  0  0  0  0  0  0  0  0
    5.1713    0.1177   24.8338 C   0  0  0  0  0  0  0  0  0  0  0  0
    5.7036   -0.1729   23.4618 C   0  0  0  0  0  0  0  0  0  0  0  0
    6.9241   -1.0321   23.6105 N   0  0  0  0  0  0  0  0  0  0  0  0
    7.7734   -1.5585   22.4918 C   0  0  0  0  0  0  0  0  0  0  0  0
    7.4260   -1.2331   21.0693 O   0  0  0  0  0  0  0  0  0  0  0  0
    7.1461   -1.2725   25.0744 C   0  0  0  0  0  0  0  0  0  0  0  0
    5.1181    0.3108   22.1683 C   0  0  0  0  0  0  0  0  0  0  0  0
    5.7408   -0.0943   20.8652 C   0  0  0  0  0  0  0  0  0  0  0  0
    5.1553    0.3893   19.5717 C   0  0  0  0  0  0  0  0  0  0  0  0
    3.9471    1.2782   19.5812 C   0  0  0  0  0  0  0  0  0  0  0  0
    3.3244    1.6834   20.8843 C   0  0  0  0  0  0  0  0  0  0  0  0
    3.9098    1.1997   22.1778 C   0  0  0  0  0  0  0  0  0  0  0  0
    8.9702   -2.4102   22.7956 C   0  0  0  0  0  0  0  0  0  0  0  0
   10.3017   -1.7688   23.0518 C   0  0  0  0  0  0  0  0  0  0  0  0
   10.8053   -0.6940   22.1347 C   0  0  0  0  0  0  0  0  0  0  0  0
   12.1368   -0.0526   22.3909 N   0  0  0  0  0  0  0  0  0  0  0  0
   12.9647   -0.4860   23.5642 C   0  0  0  0  0  0  0  0  0  0  0  0
   12.4611   -1.5608   24.4814 C   0  0  0  0  0  0  0  0  0  0  0  0
   13.2890   -1.9943   25.6547 C   0  0  0  0  0  0  0  0  0  0  0  0
   12.7854   -3.0691   26.5718 C   0  0  0  0  0  0  0  0  0  0  0  0
   11.4539   -3.7105   26.3156 C   0  0  0  0  0  0  0  0  0  0  0  0
   10.6260   -3.2771   25.1423 C   0  0  0  0  0  0  0  0  0  0  0  0
   11.1296   -2.2023   24.2252 C   0  0  0  0  0  0  0  0  0  0  0  0
  2  1  1  0  0  0
  2  3  1  0  0  0
  3  4  1  0  0  0
  4  9  1  0  0  0
  9 10  2  0  0  0
 10 11  1  0  0  0
 11 12  2  0  0  0
 12 13  1  0  0  0
 13 14  2  0  0  0
  4  5  1  0  0  0
  5  6  1  0  0  0
  6  7  2  0  0  0
  6 15  1  0  0  0
 15 16  1  0  0  0
 16 17  2  0  0  0
 17 18  1  0  0  0
 18 19  2  0  0  0
 19 20  1  0  0  0
 20 21  2  0  0  0
 21 22  1  0  0  0
 22 23  2  0  0  0
 23 24  1  0  0  0
 24 25  2  0  0  0
  5  8  1  0  0  0
  8  2  1  0  0  0
 14  9  1  0  0  0
 25 16  1  0  0  0
 25 20  1  0  0  0
M  END
> <minimizedAffinity>
-7.02959

> <CNNscore>
0.4918953478

> <CNNaffinity>
5.7337870598

> <CNN_VS>
2.8204231262

> <CNNaffinity_variance>
0.1182675734

$$$$
