


 25 29  0  0  0  0  0  0  0  0999 V2000
   -8.8820   -4.8615  -27.2532 C   0  0  0  0  0  0  0  0  0  0  0  0
   -8.3630   -6.0273  -26.4647 C   0  0  0  0  0  0  0  0  0  0  0  0
   -8.4937   -7.4187  -27.0093 O   0  0  0  0  0  0  0  0  0  0  0  0
   -7.7134   -5.8015  -25.1317 N   0  0  0  0  0  0  0  0  0  0  0  0
   -7.1502   -6.8633  -24.2342 C   0  0  0  0  0  0  0  0  0  0  0  0
   -6.6017   -6.1923  -23.0099 C   0  0  0  0  0  0  0  0  0  0  0  0
   -6.8258   -4.7159  -23.1507 C   0  0  0  0  0  0  0  0  0  0  0  0
   -7.5129   -4.4744  -24.4620 C   0  0  0  0  0  0  0  0  0  0  0  0
   -6.9644   -3.8033  -23.2377 C   0  0  0  0  0  0  0  0  0  0  0  0
   -6.7639   -2.4762  -22.5680 C   0  0  0  0  0  0  0  0  0  0  0  0
   -7.1778   -1.1417  -23.1139 O   0  0  0  0  0  0  0  0  0  0  0  0
   -6.0768   -2.7177  -21.2568 N   0  0  0  0  0  0  0  0  0  0  0  0
   -5.8527   -4.1942  -21.1160 C   0  0  0  0  0  0  0  0  0  0  0  0
   -5.1953   -4.8794  -19.9547 O   0  0  0  0  0  0  0  0  0  0  0  0
   -6.4012   -4.8652  -22.3402 N   0  0  0  0  0  0  0  0  0  0  0  0
   -5.6830   -1.6673  -20.2610 C   0  0  0  0  0  0  0  0  0  0  0  0
   -6.1783   -1.7507  -18.8476 C   0  0  0  0  0  0  0  0  0  0  0  0
   -5.7845   -0.7003  -17.8517 N   0  0  0  0  0  0  0  0  0  0  0  0
   -4.8955    0.4333  -18.2693 C   0  0  0  0  0  0  0  0  0  0  0  0
   -4.4002    0.5167  -19.6827 C   0  0  0  0  0  0  0  0  0  0  0  0
   -3.5112    1.6503  -20.1003 C   0  0  0  0  0  0  0  0  0  0  0  0
   -3.0159    1.7337  -21.5137 C   0  0  0  0  0  0  0  0  0  0  0  0
   -3.4096    0.6834  -22.5096 C   0  0  0  0  0  0  0  0  0  0  0  0
   -4.2987   -0.4503  -22.0920 C   0  0  0  0  0  0  0  0  0  0  0  0
   -4.7940   -0.5337  -20.6786 C   0  0  0  0  0  0  0  0  0  0  0  0
  1  2  1  0  0  0
  2  3  2  0  0  0
  2  4  1  0  0  0
  4  5  1  0  0  0
  6  5  1  0  0  0
  6  7  1  0  0  0
  7  8  1  0  0  0
  8  9  1  0  0  0
  9 10  2  0  0  0
 10 11  1  0  0  0
 10 12  1  0  0  0
 12 16  1  0  0  0
 16 17  2  0  0  0
 17 18  1  0  0  0
 18 19  2  0  0  0
 19 20  1  0  0  0
 20 21  2  0  0  0
 21 22  1  0  0  0
 22 23  2  0  0  0
 23 24  1  0  0  0
 24 25  2  0  0  0
 12 13  1  0  0  0
 13 14  2  0  0  0
 13 15  1  0  0  0
  8  4  1  0  0  0
 15  9  1  0  0  0
 15  6  1  0  0  0
 25 16  1  0  0  0
 25 20  1  0  0  0
M  CHG 1  11  -1
M  END
> <minimizedAffinity>
-8.08674

> <CNNscore>
0.7643641233

> <CNNaffinity>
5.5308670998

> <CNN_VS>
4.2275962830

> <CNNaffinity_variance>
0.1099020094

$$$$



 25 29  0  0  0  0  0  0  0  0999 V2000
   -6.3636   -4.0731  -22.4084 C   0  0  0  0  0  0  0  0  0  0  0  0
   -7.5304   -4.6332  -23.1665 C   0  0  0  0  0  0  0  0  0  0  0  0
   -7.5177   -6.0657  -23.6114 O   0  0  0  0  0  0  0  0  0  0  0  0
   -8.7098   -3.7610  -23.4798 N   0  0  0  0  0  0  0  0  0  0  0  0
   -9.9422   -4.1790  -24.2258 C   0  0  0  0  0  0  0  0  0  0  0  0
  -10.8580   -2.9939  -24.3091 C   0  0  0  0  0  0  0  0  0  0  0  0
  -10.1916   -1.8435  -23.6146 C   0  0  0  0  0  0  0  0  0  0  0  0
   -8.8640   -2.3176  -23.1020 C   0  0  0  0  0  0  0  0  0  0  0  0
   -9.7798   -1.1324  -23.1853 C   0  0  0  0  0  0  0  0  0  0  0  0
   -9.9340    0.3110  -22.8075 C   0  0  0  0  0  0  0  0  0  0  0  0
   -8.9357    1.1356  -22.0501 O   0  0  0  0  0  0  0  0  0  0  0  0
  -11.2615    0.7850  -23.3201 N   0  0  0  0  0  0  0  0  0  0  0  0
  -11.9279   -0.3654  -24.0146 C   0  0  0  0  0  0  0  0  0  0  0  0
  -13.2738   -0.3360  -24.6763 O   0  0  0  0  0  0  0  0  0  0  0  0
  -11.0122   -1.5505  -23.9314 N   0  0  0  0  0  0  0  0  0  0  0  0
  -11.8241    2.1669  -23.1653 C   0  0  0  0  0  0  0  0  0  0  0  0
  -12.9634    2.4113  -22.2207 C   0  0  0  0  0  0  0  0  0  0  0  0
  -13.5261    3.7931  -22.0658 N   0  0  0  0  0  0  0  0  0  0  0  0
  -12.9494    4.9305  -22.8556 C   0  0  0  0  0  0  0  0  0  0  0  0
  -11.8101    4.6861  -23.8002 C   0  0  0  0  0  0  0  0  0  0  0  0
  -11.2335    5.8236  -24.5899 C   0  0  0  0  0  0  0  0  0  0  0  0
  -10.0942    5.5792  -25.5345 C   0  0  0  0  0  0  0  0  0  0  0  0
   -9.5315    4.1974  -25.6894 C   0  0  0  0  0  0  0  0  0  0  0  0
  -10.1081    3.0599  -24.8996 C   0  0  0  0  0  0  0  0  0  0  0  0
  -11.2474    3.3043  -23.9550 C   0  0  0  0  0  0  0  0  0  0  0  0
  1  2  1  0  0  0
  2  3  2  0  0  0
  2  4  1  0  0  0
  4  5  1  0  0  0
  6  5  1  0  0  0
  6  7  1  0  0  0
  7  8  1  0  0  0
  8  9  1  0  0  0
  9 10  2  0  0  0
 10 11  1  0  0  0
 10 12  1  0  0  0
 12 16  1  0  0  0
 16 17  2  0  0  0
 17 18  1  0  0  0
 18 19  2  0  0  0
 19 20  1  0  0  0
 20 21  2  0  0  0
 21 22  1  0  0  0
 22 23  2  0  0  0
 23 24  1  0  0  0
 24 25  2  0  0  0
 12 13  1  0  0  0
 13 14  2  0  0  0
 13 15  1  0  0  0
  8  4  1  0  0  0
 15  9  1  0  0  0
 15  6  1  0  0  0
 25 16  1  0  0  0
 25 20  1  0  0  0
M  CHG 1  11  -1
M  END
> <minimizedAffinity>
-6.96411

> <CNNscore>
0.6066045761

> <CNNaffinity>
5.4700565338

> <CNN_VS>
3.3181612492

> <CNNaffinity_variance>
0.0837109834

$$$$



 25 29  0  0  0  0  0  0  0  0999 V2000
   -8.5124   -7.0385  -25.8065 C   0  0  0  0  0  0  0  0  0  0  0  0
   -9.5630   -5.9784  -25.9558 C   0  0  0  0  0  0  0  0  0  0  0  0
  -10.6774   -6.1608  -26.9431 O   0  0  0  0  0  0  0  0  0  0  0  0
   -9.4992   -4.7359  -25.1179 N   0  0  0  0  0  0  0  0  0  0  0  0
  -10.4730   -3.5956  -25.1562 C   0  0  0  0  0  0  0  0  0  0  0  0
  -10.0261   -2.5705  -24.1565 C   0  0  0  0  0  0  0  0  0  0  0  0
   -8.7760   -3.0772  -23.5003 C   0  0  0  0  0  0  0  0  0  0  0  0
   -8.4504   -4.4155  -24.0945 C   0  0  0  0  0  0  0  0  0  0  0  0
   -8.0034   -3.3904  -23.0947 C   0  0  0  0  0  0  0  0  0  0  0  0
   -6.9546   -3.0700  -22.0713 C   0  0  0  0  0  0  0  0  0  0  0  0
   -5.7855   -3.9360  -21.7062 O   0  0  0  0  0  0  0  0  0  0  0  0
   -7.2803   -1.7318  -21.4772 N   0  0  0  0  0  0  0  0  0  0  0  0
   -8.5303   -1.2251  -22.1334 C   0  0  0  0  0  0  0  0  0  0  0  0
   -9.2135    0.0780  -21.8412 O   0  0  0  0  0  0  0  0  0  0  0  0
   -8.9773   -2.2501  -23.1331 N   0  0  0  0  0  0  0  0  0  0  0  0
   -6.4940   -1.0244  -20.4136 C   0  0  0  0  0  0  0  0  0  0  0  0
   -6.9415   -1.0874  -18.9832 C   0  0  0  0  0  0  0  0  0  0  0  0
   -6.1553   -0.3800  -17.9195 N   0  0  0  0  0  0  0  0  0  0  0  0
   -4.9216    0.3904  -18.2861 C   0  0  0  0  0  0  0  0  0  0  0  0
   -4.4740    0.4533  -19.7165 C   0  0  0  0  0  0  0  0  0  0  0  0
   -3.2403    1.2237  -20.0831 C   0  0  0  0  0  0  0  0  0  0  0  0
   -2.7927    1.2866  -21.5134 C   0  0  0  0  0  0  0  0  0  0  0  0
   -3.5789    0.5793  -22.5771 C   0  0  0  0  0  0  0  0  0  0  0  0
   -4.8127   -0.1911  -22.2105 C   0  0  0  0  0  0  0  0  0  0  0  0
   -5.2602   -0.2541  -20.7802 C   0  0  0  0  0  0  0  0  0  0  0  0
  1  2  1  0  0  0
  2  3  2  0  0  0
  2  4  1  0  0  0
  4  5  1  0  0  0
  6  5  1  0  0  0
  6  7  1  0  0  0
  7  8  1  0  0  0
  8  9  1  0  0  0
  9 10  2  0  0  0
 10 11  1  0  0  0
 10 12  1  0  0  0
 12 16  1  0  0  0
 16 17  2  0  0  0
 17 18  1  0  0  0
 18 19  2  0  0  0
 19 20  1  0  0  0
 20 21  2  0  0  0
 21 22  1  0  0  0
 22 23  2  0  0  0
 23 24  1  0  0  0
 24 25  2  0  0  0
 12 13  1  0  0  0
 13 14  2  0  0  0
 13 15  1  0  0  0
  8  4  1  0  0  0
 15  9  1  0  0  0
 15  6  1  0  0  0
 25 16  1  0  0  0
 25 20  1  0  0  0
M  CHG 1  11  -1
M  END
> <minimizedAffinity>
-8.34688

> <CNNscore>
0.3906232417

> <CNNaffinity>
5.1824226379

> <CNN_VS>
2.0243747234

> <CNNaffinity_variance>
0.3035961688

$$$$



 25 29  0  0  0  0  0  0  0  0999 V2000
   -2.4246    1.5602  -20.2962 C   0  0  0  0  0  0  0  0  0  0  0  0
   -2.2075    1.1970  -21.7353 C   0  0  0  0  0  0  0  0  0  0  0  0
   -0.8572    1.3851  -22.3607 O   0  0  0  0  0  0  0  0  0  0  0  0
   -3.3407    0.6459  -22.5489 N   0  0  0  0  0  0  0  0  0  0  0  0
   -3.2747    0.2401  -23.9915 C   0  0  0  0  0  0  0  0  0  0  0  0
   -4.6321   -0.2528  -24.3970 C   0  0  0  0  0  0  0  0  0  0  0  0
   -5.5371   -0.1518  -23.2050 C   0  0  0  0  0  0  0  0  0  0  0  0
   -4.7389    0.4036  -22.0629 C   0  0  0  0  0  0  0  0  0  0  0  0
   -6.0964   -0.0893  -22.4683 C   0  0  0  0  0  0  0  0  0  0  0  0
   -7.4947   -0.3316  -21.9822 C   0  0  0  0  0  0  0  0  0  0  0  0
   -8.0051   -0.0651  -20.5971 O   0  0  0  0  0  0  0  0  0  0  0  0
   -8.2927   -0.8869  -23.1243 N   0  0  0  0  0  0  0  0  0  0  0  0
   -7.3877   -0.9880  -24.3163 C   0  0  0  0  0  0  0  0  0  0  0  0
   -7.7727   -1.4933  -25.6752 O   0  0  0  0  0  0  0  0  0  0  0  0
   -6.0303   -0.4951  -23.9109 N   0  0  0  0  0  0  0  0  0  0  0  0
   -9.7415   -1.2735  -23.0820 C   0  0  0  0  0  0  0  0  0  0  0  0
  -10.1300   -2.6994  -22.8255 C   0  0  0  0  0  0  0  0  0  0  0  0
  -11.5786   -3.0861  -22.7832 N   0  0  0  0  0  0  0  0  0  0  0  0
  -12.6388   -2.0468  -22.9974 C   0  0  0  0  0  0  0  0  0  0  0  0
  -12.2503   -0.6209  -23.2539 C   0  0  0  0  0  0  0  0  0  0  0  0
  -13.3105    0.4184  -23.4682 C   0  0  0  0  0  0  0  0  0  0  0  0
  -12.9220    1.8443  -23.7247 C   0  0  0  0  0  0  0  0  0  0  0  0
  -11.4733    2.2310  -23.7670 C   0  0  0  0  0  0  0  0  0  0  0  0
  -10.4131    1.1917  -23.5528 C   0  0  0  0  0  0  0  0  0  0  0  0
  -10.8016   -0.2342  -23.2962 C   0  0  0  0  0  0  0  0  0  0  0  0
  1  2  1  0  0  0
  2  3  2  0  0  0
  2  4  1  0  0  0
  4  5  1  0  0  0
  6  5  1  0  0  0
  6  7  1  0  0  0
  7  8  1  0  0  0
  8  9  1  0  0  0
  9 10  2  0  0  0
 10 11  1  0  0  0
 10 12  1  0  0  0
 12 16  1  0  0  0
 16 17  2  0  0  0
 17 18  1  0  0  0
 18 19  2  0  0  0
 19 20  1  0  0  0
 20 21  2  0  0  0
 21 22  1  0  0  0
 22 23  2  0  0  0
 23 24  1  0  0  0
 24 25  2  0  0  0
 12 13  1  0  0  0
 13 14  2  0  0  0
 13 15  1  0  0  0
  8  4  1  0  0  0
 15  9  1  0  0  0
 15  6  1  0  0  0
 25 16  1  0  0  0
 25 20  1  0  0  0
M  CHG 1  11  -1
M  END
> <minimizedAffinity>
-6.58673

> <CNNscore>
0.3651378453

> <CNNaffinity>
5.0094213486

> <CNN_VS>
1.8291293383

> <CNNaffinity_variance>
0.0959582031

$$$$



 25 29  0  0  0  0  0  0  0  0999 V2000
   -2.6682    1.8835  -19.8297 C   0  0  0  0  0  0  0  0  0  0  0  0
   -2.5810    2.7497  -21.0512 C   0  0  0  0  0  0  0  0  0  0  0  0
   -1.3096    3.4827  -21.3615 O   0  0  0  0  0  0  0  0  0  0  0  0
   -3.7650    2.8829  -21.9623 N   0  0  0  0  0  0  0  0  0  0  0  0
   -3.8265    3.7082  -23.2134 C   0  0  0  0  0  0  0  0  0  0  0  0
   -5.1950    3.5495  -23.8067 C   0  0  0  0  0  0  0  0  0  0  0  0
   -5.9794    2.6262  -22.9223 C   0  0  0  0  0  0  0  0  0  0  0  0
   -5.0956    2.2142  -21.7824 C   0  0  0  0  0  0  0  0  0  0  0  0
   -6.4642    2.0555  -22.3757 C   0  0  0  0  0  0  0  0  0  0  0  0
   -7.7948    1.3869  -22.1957 C   0  0  0  0  0  0  0  0  0  0  0  0
   -8.1749    0.4676  -21.0730 O   0  0  0  0  0  0  0  0  0  0  0  0
   -8.6785    1.7988  -23.3355 N   0  0  0  0  0  0  0  0  0  0  0  0
   -7.8941    2.7221  -24.2199 C   0  0  0  0  0  0  0  0  0  0  0  0
   -8.3910    3.3726  -25.4770 O   0  0  0  0  0  0  0  0  0  0  0  0
   -6.5256    2.8809  -23.6268 N   0  0  0  0  0  0  0  0  0  0  0  0
  -10.0975    1.3639  -23.5529 C   0  0  0  0  0  0  0  0  0  0  0  0
  -10.4161   -0.0900  -23.7392 C   0  0  0  0  0  0  0  0  0  0  0  0
  -11.8351   -0.5250  -23.9566 N   0  0  0  0  0  0  0  0  0  0  0  0
  -12.9354    0.4939  -23.9877 C   0  0  0  0  0  0  0  0  0  0  0  0
  -12.6169    1.9478  -23.8014 C   0  0  0  0  0  0  0  0  0  0  0  0
  -13.7173    2.9667  -23.8325 C   0  0  0  0  0  0  0  0  0  0  0  0
  -13.3987    4.4206  -23.6462 C   0  0  0  0  0  0  0  0  0  0  0  0
  -11.9797    4.8556  -23.4288 C   0  0  0  0  0  0  0  0  0  0  0  0
  -10.8793    3.8367  -23.3977 C   0  0  0  0  0  0  0  0  0  0  0  0
  -11.1979    2.3828  -23.5840 C   0  0  0  0  0  0  0  0  0  0  0  0
  1  2  1  0  0  0
  2  3  2  0  0  0
  2  4  1  0  0  0
  4  5  1  0  0  0
  6  5  1  0  0  0
  6  7  1  0  0  0
  7  8  1  0  0  0
  8  9  1  0  0  0
  9 10  2  0  0  0
 10 11  1  0  0  0
 10 12  1  0  0  0
 12 16  1  0  0  0
 16 17  2  0  0  0
 17 18  1  0  0  0
 18 19  2  0  0  0
 19 20  1  0  0  0
 20 21  2  0  0  0
 21 22  1  0  0  0
 22 23  2  0  0  0
 23 24  1  0  0  0
 24 25  2  0  0  0
 12 13  1  0  0  0
 13 14  2  0  0  0
 13 15  1  0  0  0
  8  4  1  0  0  0
 15  9  1  0  0  0
 15  6  1  0  0  0
 25 16  1  0  0  0
 25 20  1  0  0  0
M  CHG 1  11  -1
M  END
> <minimizedAffinity>
-6.40680

> <CNNscore>
0.3486677706

> <CNNaffinity>
4.8837161064

> <CNN_VS>
1.7027944326

> <CNNaffinity_variance>
0.1900699884

$$$$



 25 29  0  0  0  0  0  0  0  0999 V2000
   -0.7599    2.3599  -22.3870 C   0  0  0  0  0  0  0  0  0  0  0  0
   -1.2634    2.3214  -20.9746 C   0  0  0  0  0  0  0  0  0  0  0  0
   -0.4661    2.9605  -19.8765 O   0  0  0  0  0  0  0  0  0  0  0  0
   -2.5642    1.6437  -20.6602 N   0  0  0  0  0  0  0  0  0  0  0  0
   -3.1916    1.5260  -19.3029 C   0  0  0  0  0  0  0  0  0  0  0  0
   -4.4811    0.7743  -19.4518 C   0  0  0  0  0  0  0  0  0  0  0  0
   -4.6507    0.4276  -20.9013 C   0  0  0  0  0  0  0  0  0  0  0  0
   -3.4660    0.9649  -21.6481 C   0  0  0  0  0  0  0  0  0  0  0  0
   -4.7555    0.2132  -21.7972 C   0  0  0  0  0  0  0  0  0  0  0  0
   -5.6573   -0.4656  -22.7851 C   0  0  0  0  0  0  0  0  0  0  0  0
   -5.4165   -0.5860  -24.2608 O   0  0  0  0  0  0  0  0  0  0  0  0
   -6.8419   -1.0029  -22.0383 N   0  0  0  0  0  0  0  0  0  0  0  0
   -6.6723   -0.6561  -20.5888 C   0  0  0  0  0  0  0  0  0  0  0  0
   -7.6251   -1.0006  -19.4825 O   0  0  0  0  0  0  0  0  0  0  0  0
   -5.3829    0.0955  -20.4397 N   0  0  0  0  0  0  0  0  0  0  0  0
   -7.9940   -1.7550  -22.6359 C   0  0  0  0  0  0  0  0  0  0  0  0
   -7.8498   -3.2119  -22.9627 C   0  0  0  0  0  0  0  0  0  0  0  0
   -9.0018   -3.9640  -23.5603 N   0  0  0  0  0  0  0  0  0  0  0  0
  -10.2980   -3.2594  -23.8311 C   0  0  0  0  0  0  0  0  0  0  0  0
  -10.4421   -1.8025  -23.5043 C   0  0  0  0  0  0  0  0  0  0  0  0
  -11.7383   -1.0978  -23.7751 C   0  0  0  0  0  0  0  0  0  0  0  0
  -11.8825    0.3591  -23.4483 C   0  0  0  0  0  0  0  0  0  0  0  0
  -10.7305    1.1113  -22.8507 C   0  0  0  0  0  0  0  0  0  0  0  0
   -9.4343    0.4066  -22.5799 C   0  0  0  0  0  0  0  0  0  0  0  0
   -9.2901   -1.0503  -22.9067 C   0  0  0  0  0  0  0  0  0  0  0  0
  1  2  1  0  0  0
  2  3  2  0  0  0
  2  4  1  0  0  0
  4  5  1  0  0  0
  6  5  1  0  0  0
  6  7  1  0  0  0
  7  8  1  0  0  0
  8  9  1  0  0  0
  9 10  2  0  0  0
 10 11  1  0  0  0
 10 12  1  0  0  0
 12 16  1  0  0  0
 16 17  2  0  0  0
 17 18  1  0  0  0
 18 19  2  0  0  0
 19 20  1  0  0  0
 20 21  2  0  0  0
 21 22  1  0  0  0
 22 23  2  0  0  0
 23 24  1  0  0  0
 24 25  2  0  0  0
 12 13  1  0  0  0
 13 14  2  0  0  0
 13 15  1  0  0  0
  8  4  1  0  0  0
 15  9  1  0  0  0
 15  6  1  0  0  0
 25 16  1  0  0  0
 25 20  1  0  0  0
M  CHG 1  11  -1
M  END
> <minimizedAffinity>
-6.99143

> <CNNscore>
0.3207621574

> <CNNaffinity>
5.1837205887

> <CNN_VS>
1.6627414227

> <CNNaffinity_variance>
0.3608787954

$$$$



 25 29  0  0  0  0  0  0  0  0999 V2000
   -8.8776   -5.1097  -24.9411 C   0  0  0  0  0  0  0  0  0  0  0  0
   -7.6585   -4.2986  -24.6160 C   0  0  0  0  0  0  0  0  0  0  0  0
   -6.3049   -4.9449  -24.6196 O   0  0  0  0  0  0  0  0  0  0  0  0
   -7.7929   -2.8413  -24.2872 N   0  0  0  0  0  0  0  0  0  0  0  0
   -6.6702   -1.9076  -23.9438 C   0  0  0  0  0  0  0  0  0  0  0  0
   -7.2571   -0.5510  -23.6885 C   0  0  0  0  0  0  0  0  0  0  0  0
   -8.7425   -0.6462  -23.8741 C   0  0  0  0  0  0  0  0  0  0  0  0
   -9.0737   -2.0616  -24.2442 C   0  0  0  0  0  0  0  0  0  0  0  0
   -9.6606   -0.7050  -23.9889 C   0  0  0  0  0  0  0  0  0  0  0  0
  -10.9414    0.0746  -23.9458 C   0  0  0  0  0  0  0  0  0  0  0  0
  -12.3126   -0.4663  -24.2239 O   0  0  0  0  0  0  0  0  0  0  0  0
  -10.6102    1.4900  -23.5758 N   0  0  0  0  0  0  0  0  0  0  0  0
   -9.1248    1.5851  -23.3901 C   0  0  0  0  0  0  0  0  0  0  0  0
   -8.3605    2.8202  -23.0150 O   0  0  0  0  0  0  0  0  0  0  0  0
   -8.5379    0.2286  -23.6454 N   0  0  0  0  0  0  0  0  0  0  0  0
  -11.5921    2.6131  -23.4189 C   0  0  0  0  0  0  0  0  0  0  0  0
  -12.6040    2.5755  -22.3122 C   0  0  0  0  0  0  0  0  0  0  0  0
  -13.5859    3.6985  -22.1552 N   0  0  0  0  0  0  0  0  0  0  0  0
  -13.5558    4.8593  -23.1049 C   0  0  0  0  0  0  0  0  0  0  0  0
  -12.5438    4.8969  -24.2115 C   0  0  0  0  0  0  0  0  0  0  0  0
  -12.5137    6.0576  -25.1611 C   0  0  0  0  0  0  0  0  0  0  0  0
  -11.5018    6.0953  -26.2677 C   0  0  0  0  0  0  0  0  0  0  0  0
  -10.5200    4.9722  -26.4247 C   0  0  0  0  0  0  0  0  0  0  0  0
  -10.5500    3.8115  -25.4751 C   0  0  0  0  0  0  0  0  0  0  0  0
  -11.5620    3.7738  -24.3685 C   0  0  0  0  0  0  0  0  0  0  0  0
  1  2  1  0  0  0
  2  3  2  0  0  0
  2  4  1  0  0  0
  4  5  1  0  0  0
  6  5  1  0  0  0
  6  7  1  0  0  0
  7  8  1  0  0  0
  8  9  1  0  0  0
  9 10  2  0  0  0
 10 11  1  0  0  0
 10 12  1  0  0  0
 12 16  1  0  0  0
 16 17  2  0  0  0
 17 18  1  0  0  0
 18 19  2  0  0  0
 19 20  1  0  0  0
 20 21  2  0  0  0
 21 22  1  0  0  0
 22 23  2  0  0  0
 23 24  1  0  0  0
 24 25  2  0  0  0
 12 13  1  0  0  0
 13 14  2  0  0  0
 13 15  1  0  0  0
  8  4  1  0  0  0
 15  9  1  0  0  0
 15  6  1  0  0  0
 25 16  1  0  0  0
 25 20  1  0  0  0
M  CHG 1  11  -1
M  END
> <minimizedAffinity>
-6.34916

> <CNNscore>
0.2703056037

> <CNNaffinity>
4.9574403763

> <CNN_VS>
1.3400238752

> <CNNaffinity_variance>
0.1614906788

$$$$



 25 29  0  0  0  0  0  0  0  0999 V2000
   -2.4717    4.0603  -22.2124 C   0  0  0  0  0  0  0  0  0  0  0  0
   -2.5014    3.3446  -20.8945 C   0  0  0  0  0  0  0  0  0  0  0  0
   -1.4904    3.6771  -19.8376 O   0  0  0  0  0  0  0  0  0  0  0  0
   -3.5421    2.2963  -20.6337 N   0  0  0  0  0  0  0  0  0  0  0  0
   -3.6955    1.5012  -19.3711 C   0  0  0  0  0  0  0  0  0  0  0  0
   -4.8604    0.5726  -19.5466 C   0  0  0  0  0  0  0  0  0  0  0  0
   -5.4269    0.7938  -20.9178 C   0  0  0  0  0  0  0  0  0  0  0  0
   -4.6122    1.8591  -21.5896 C   0  0  0  0  0  0  0  0  0  0  0  0
   -5.7771    0.9305  -21.7652 C   0  0  0  0  0  0  0  0  0  0  0  0
   -6.8472    0.4934  -22.7212 C   0  0  0  0  0  0  0  0  0  0  0  0
   -7.0644    1.0278  -24.1058 O   0  0  0  0  0  0  0  0  0  0  0  0
   -7.6618   -0.5719  -22.0494 N   0  0  0  0  0  0  0  0  0  0  0  0
   -7.0953   -0.7931  -20.6782 C   0  0  0  0  0  0  0  0  0  0  0  0
   -7.6042   -1.7713  -19.6612 O   0  0  0  0  0  0  0  0  0  0  0  0
   -5.9304    0.1354  -20.5025 N   0  0  0  0  0  0  0  0  0  0  0  0
   -8.8368   -1.2900  -22.6442 C   0  0  0  0  0  0  0  0  0  0  0  0
   -8.7405   -2.7535  -22.9587 C   0  0  0  0  0  0  0  0  0  0  0  0
   -9.9154   -3.4717  -23.5535 N   0  0  0  0  0  0  0  0  0  0  0  0
  -11.1866   -2.7264  -23.8338 C   0  0  0  0  0  0  0  0  0  0  0  0
  -11.2829   -1.2629  -23.5192 C   0  0  0  0  0  0  0  0  0  0  0  0
  -12.5541   -0.5176  -23.7995 C   0  0  0  0  0  0  0  0  0  0  0  0
  -12.6504    0.9460  -23.4850 C   0  0  0  0  0  0  0  0  0  0  0  0
  -11.4754    1.6642  -22.8902 C   0  0  0  0  0  0  0  0  0  0  0  0
  -10.2043    0.9188  -22.6099 C   0  0  0  0  0  0  0  0  0  0  0  0
  -10.1080   -0.5447  -22.9245 C   0  0  0  0  0  0  0  0  0  0  0  0
  1  2  1  0  0  0
  2  3  2  0  0  0
  2  4  1  0  0  0
  4  5  1  0  0  0
  6  5  1  0  0  0
  6  7  1  0  0  0
  7  8  1  0  0  0
  8  9  1  0  0  0
  9 10  2  0  0  0
 10 11  1  0  0  0
 10 12  1  0  0  0
 12 16  1  0  0  0
 16 17  2  0  0  0
 17 18  1  0  0  0
 18 19  2  0  0  0
 19 20  1  0  0  0
 20 21  2  0  0  0
 21 22  1  0  0  0
 22 23  2  0  0  0
 23 24  1  0  0  0
 24 25  2  0  0  0
 12 13  1  0  0  0
 13 14  2  0  0  0
 13 15  1  0  0  0
  8  4  1  0  0  0
 15  9  1  0  0  0
 15  6  1  0  0  0
 25 16  1  0  0  0
 25 20  1  0  0  0
M  CHG 1  11  -1
M  END
> <minimizedAffinity>
-7.40710

> <CNNscore>
0.2449322343

> <CNNaffinity>
5.0592317581

> <CNN_VS>
1.2391688824

> <CNNaffinity_variance>
0.0638805702

$$$$



 25 29  0  0  0  0  0  0  0  0999 V2000
   -7.6701   -6.7142  -23.7262 C   0  0  0  0  0  0  0  0  0  0  0  0
   -6.7421   -5.9050  -22.8694 C   0  0  0  0  0  0  0  0  0  0  0  0
   -5.5281   -6.5465  -22.2655 O   0  0  0  0  0  0  0  0  0  0  0  0
   -7.0281   -4.4544  -22.6166 N   0  0  0  0  0  0  0  0  0  0  0  0
   -6.1957   -3.5234  -21.7857 C   0  0  0  0  0  0  0  0  0  0  0  0
   -6.8498   -2.1737  -21.8058 C   0  0  0  0  0  0  0  0  0  0  0  0
   -8.0865   -2.2705  -22.6491 C   0  0  0  0  0  0  0  0  0  0  0  0
   -8.1967   -3.6800  -23.1502 C   0  0  0  0  0  0  0  0  0  0  0  0
   -8.8509   -2.3303  -23.1704 C   0  0  0  0  0  0  0  0  0  0  0  0
  -10.0195   -1.5560  -23.7040 C   0  0  0  0  0  0  0  0  0  0  0  0
  -11.1073   -2.0964  -24.5842 O   0  0  0  0  0  0  0  0  0  0  0  0
   -9.9093   -0.1465  -23.2029 N   0  0  0  0  0  0  0  0  0  0  0  0
   -8.6726   -0.0497  -22.3596 C   0  0  0  0  0  0  0  0  0  0  0  0
   -8.1770    1.1808  -21.6594 O   0  0  0  0  0  0  0  0  0  0  0  0
   -8.0184   -1.3993  -22.3394 N   0  0  0  0  0  0  0  0  0  0  0  0
  -10.8675    0.9702  -23.4940 C   0  0  0  0  0  0  0  0  0  0  0  0
  -12.2605    0.9269  -22.9392 C   0  0  0  0  0  0  0  0  0  0  0  0
  -13.2188    2.0435  -23.2302 N   0  0  0  0  0  0  0  0  0  0  0  0
  -12.7841    3.2035  -24.0760 C   0  0  0  0  0  0  0  0  0  0  0  0
  -11.3911    3.2469  -24.6308 C   0  0  0  0  0  0  0  0  0  0  0  0
  -10.9565    4.4069  -25.4766 C   0  0  0  0  0  0  0  0  0  0  0  0
   -9.5635    4.4503  -26.0314 C   0  0  0  0  0  0  0  0  0  0  0  0
   -8.6052    3.3336  -25.7404 C   0  0  0  0  0  0  0  0  0  0  0  0
   -9.0399    2.1736  -24.8946 C   0  0  0  0  0  0  0  0  0  0  0  0
  -10.4328    2.1302  -24.3398 C   0  0  0  0  0  0  0  0  0  0  0  0
  1  2  1  0  0  0
  2  3  2  0  0  0
  2  4  1  0  0  0
  4  5  1  0  0  0
  6  5  1  0  0  0
  6  7  1  0  0  0
  7  8  1  0  0  0
  8  9  1  0  0  0
  9 10  2  0  0  0
 10 11  1  0  0  0
 10 12  1  0  0  0
 12 16  1  0  0  0
 16 17  2  0  0  0
 17 18  1  0  0  0
 18 19  2  0  0  0
 19 20  1  0  0  0
 20 21  2  0  0  0
 21 22  1  0  0  0
 22 23  2  0  0  0
 23 24  1  0  0  0
 24 25  2  0  0  0
 12 13  1  0  0  0
 13 14  2  0  0  0
 13 15  1  0  0  0
  8  4  1  0  0  0
 15  9  1  0  0  0
 15  6  1  0  0  0
 25 16  1  0  0  0
 25 20  1  0  0  0
M  CHG 1  11  -1
M  END
> <minimizedAffinity>
-6.87635

> <CNNscore>
0.2240943462

> <CNNaffinity>
5.1529951096

> <CNN_VS>
1.1547570229

> <CNNaffinity_variance>
0.2390531749

$$$$
