


 25 29  0  0  0  0  0  0  0  0999 V2000
    1.9339   -1.4272   27.9620 C   0  0  0  0  0  0  0  0  0  0  0  0
    2.1800   -2.7712   27.3430 C   0  0  0  0  0  0  0  0  0  0  0  0
    1.1244   -3.8345   27.4146 O   0  0  0  0  0  0  0  0  0  0  0  0
    3.4816   -3.0519   26.6524 N   0  0  0  0  0  0  0  0  0  0  0  0
    3.8687   -4.3412   25.9908 C   0  0  0  0  0  0  0  0  0  0  0  0
    5.2511   -4.1787   25.4317 C   0  0  0  0  0  0  0  0  0  0  0  0
    5.7184   -2.7889   25.7478 C   0  0  0  0  0  0  0  0  0  0  0  0
    4.6249   -2.0925   26.5022 C   0  0  0  0  0  0  0  0  0  0  0  0
    6.0073   -1.9298   25.9431 C   0  0  0  0  0  0  0  0  0  0  0  0
    7.1505   -0.9704   25.7929 C   0  0  0  0  0  0  0  0  0  0  0  0
    7.1927    0.4382   26.3069 O   0  0  0  0  0  0  0  0  0  0  0  0
    8.2440   -1.6668   25.0385 N   0  0  0  0  0  0  0  0  0  0  0  0
    7.7766   -3.0567   24.7224 C   0  0  0  0  0  0  0  0  0  0  0  0
    8.5550   -4.1007   23.9779 O   0  0  0  0  0  0  0  0  0  0  0  0
    6.3943   -3.2193   25.2815 N   0  0  0  0  0  0  0  0  0  0  0  0
    9.5718   -1.0770   24.6655 C   0  0  0  0  0  0  0  0  0  0  0  0
    9.6354    0.1018   23.7402 C   0  0  0  0  0  0  0  0  0  0  0  0
   10.9631    0.6917   23.3671 N   0  0  0  0  0  0  0  0  0  0  0  0
   12.2273    0.1027   23.9195 C   0  0  0  0  0  0  0  0  0  0  0  0
   12.1636   -1.0762   24.8448 C   0  0  0  0  0  0  0  0  0  0  0  0
   13.4277   -1.6651   25.3972 C   0  0  0  0  0  0  0  0  0  0  0  0
   13.3641   -2.8440   26.3225 C   0  0  0  0  0  0  0  0  0  0  0  0
   12.0364   -3.4339   26.6956 C   0  0  0  0  0  0  0  0  0  0  0  0
   10.7723   -2.8449   26.1432 C   0  0  0  0  0  0  0  0  0  0  0  0
   10.8359   -1.6660   25.2179 C   0  0  0  0  0  0  0  0  0  0  0  0
  1  2  1  0  0  0
  2  3  2  0  0  0
  2  4  1  0  0  0
  4  5  1  0  0  0
  6  5  1  0  0  0
  6  7  1  0  0  0
  7  8  1  0  0  0
  8  9  1  0  0  0
  9 10  2  0  0  0
 10 11  1  0  0  0
 10 12  1  0  0  0
 12 16  1  0  0  0
 16 17  2  0  0  0
 17 18  1  0  0  0
 18 19  2  0  0  0
 19 20  1  0  0  0
 20 21  2  0  0  0
 21 22  1  0  0  0
 22 23  2  0  0  0
 23 24  1  0  0  0
 24 25  2  0  0  0
 12 13  1  0  0  0
 13 14  2  0  0  0
 13 15  1  0  0  0
  8  4  1  0  0  0
 15  9  1  0  0  0
 15  6  1  0  0  0
 25 16  1  0  0  0
 25 20  1  0  0  0
M  CHG 1  11  -1
M  END
> <minimizedAffinity>
-6.60252

> <CNNscore>
0.5585469007

> <CNNaffinity>
5.6367044449

> <CNN_VS>
3.1483638287

> <CNNaffinity_variance>
0.5763773918

$$$$



 25 29  0  0  0  0  0  0  0  0999 V2000
    3.6754   -7.0417   25.5546 C   0  0  0  0  0  0  0  0  0  0  0  0
    3.1362   -5.8349   26.2637 C   0  0  0  0  0  0  0  0  0  0  0  0
    1.7896   -5.8913   26.9220 O   0  0  0  0  0  0  0  0  0  0  0  0
    3.9435   -4.5717   26.3145 N   0  0  0  0  0  0  0  0  0  0  0  0
    3.5372   -3.2919   26.9830 C   0  0  0  0  0  0  0  0  0  0  0  0
    4.6415   -2.2958   26.7874 C   0  0  0  0  0  0  0  0  0  0  0  0
    5.7303   -2.9600   25.9979 C   0  0  0  0  0  0  0  0  0  0  0  0
    5.2989   -4.3666   25.7056 C   0  0  0  0  0  0  0  0  0  0  0  0
    6.4033   -3.3705   25.5099 C   0  0  0  0  0  0  0  0  0  0  0  0
    7.7587   -3.1653   24.9010 C   0  0  0  0  0  0  0  0  0  0  0  0
    8.5447   -4.1874   24.1345 O   0  0  0  0  0  0  0  0  0  0  0  0
    8.1901   -1.7588   25.1933 N   0  0  0  0  0  0  0  0  0  0  0  0
    7.1012   -1.0946   25.9828 C   0  0  0  0  0  0  0  0  0  0  0  0
    7.1144    0.3178   26.4880 O   0  0  0  0  0  0  0  0  0  0  0  0
    5.9969   -2.0906   26.1785 N   0  0  0  0  0  0  0  0  0  0  0  0
    9.4832   -1.1272   24.7703 C   0  0  0  0  0  0  0  0  0  0  0  0
    9.4739    0.0515   23.8426 C   0  0  0  0  0  0  0  0  0  0  0  0
   10.7670    0.6832   23.4196 N   0  0  0  0  0  0  0  0  0  0  0  0
   12.0693    0.1362   23.9243 C   0  0  0  0  0  0  0  0  0  0  0  0
   12.0786   -1.0424   24.8521 C   0  0  0  0  0  0  0  0  0  0  0  0
   13.3809   -1.5894   25.3568 C   0  0  0  0  0  0  0  0  0  0  0  0
   13.3901   -2.7681   26.2846 C   0  0  0  0  0  0  0  0  0  0  0  0
   12.0971   -3.3998   26.7076 C   0  0  0  0  0  0  0  0  0  0  0  0
   10.7948   -2.8528   26.2028 C   0  0  0  0  0  0  0  0  0  0  0  0
   10.7855   -1.6741   25.2751 C   0  0  0  0  0  0  0  0  0  0  0  0
  1  2  1  0  0  0
  2  3  2  0  0  0
  2  4  1  0  0  0
  4  5  1  0  0  0
  6  5  1  0  0  0
  6  7  1  0  0  0
  7  8  1  0  0  0
  8  9  1  0  0  0
  9 10  2  0  0  0
 10 11  1  0  0  0
 10 12  1  0  0  0
 12 16  1  0  0  0
 16 17  2  0  0  0
 17 18  1  0  0  0
 18 19  2  0  0  0
 19 20  1  0  0  0
 20 21  2  0  0  0
 21 22  1  0  0  0
 22 23  2  0  0  0
 23 24  1  0  0  0
 24 25  2  0  0  0
 12 13  1  0  0  0
 13 14  2  0  0  0
 13 15  1  0  0  0
  8  4  1  0  0  0
 15  9  1  0  0  0
 15  6  1  0  0  0
 25 16  1  0  0  0
 25 20  1  0  0  0
M  CHG 1  11  -1
M  END
> <minimizedAffinity>
-6.83718

> <CNNscore>
0.4944619536

> <CNNaffinity>
5.6186995506

> <CNN_VS>
2.7782330513

> <CNNaffinity_variance>
0.6040756106

$$$$



 25 29  0  0  0  0  0  0  0  0999 V2000
   12.1528   -1.8899   25.6408 C   0  0  0  0  0  0  0  0  0  0  0  0
   11.1877   -3.0320   25.7595 C   0  0  0  0  0  0  0  0  0  0  0  0
   11.4576   -4.1442   26.7291 O   0  0  0  0  0  0  0  0  0  0  0  0
    9.9528   -3.0619   24.9086 N   0  0  0  0  0  0  0  0  0  0  0  0
    8.9022   -4.1325   24.9168 C   0  0  0  0  0  0  0  0  0  0  0  0
    7.8517   -3.7587   23.9134 C   0  0  0  0  0  0  0  0  0  0  0  0
    8.2531   -2.4572   23.2850 C   0  0  0  0  0  0  0  0  0  0  0  0
    9.5516   -2.0266   23.9001 C   0  0  0  0  0  0  0  0  0  0  0  0
    8.5012   -1.6527   22.8967 C   0  0  0  0  0  0  0  0  0  0  0  0
    8.1000   -0.6174   21.8882 C   0  0  0  0  0  0  0  0  0  0  0  0
    8.8635    0.6297   21.5535 O   0  0  0  0  0  0  0  0  0  0  0  0
    6.8016   -1.0480   21.2731 N   0  0  0  0  0  0  0  0  0  0  0  0
    6.4002   -2.3496   21.9015 C   0  0  0  0  0  0  0  0  0  0  0  0
    5.1651   -3.1388   21.5824 O   0  0  0  0  0  0  0  0  0  0  0  0
    7.4505   -2.7234   22.9049 N   0  0  0  0  0  0  0  0  0  0  0  0
    6.0383   -0.3073   20.2154 C   0  0  0  0  0  0  0  0  0  0  0  0
    6.4550   -0.4116   18.7782 C   0  0  0  0  0  0  0  0  0  0  0  0
    5.6919    0.3291   17.7204 N   0  0  0  0  0  0  0  0  0  0  0  0
    4.5121    1.1741   18.0998 C   0  0  0  0  0  0  0  0  0  0  0  0
    4.0954    1.2785   19.5370 C   0  0  0  0  0  0  0  0  0  0  0  0
    2.9157    2.1236   19.9163 C   0  0  0  0  0  0  0  0  0  0  0  0
    2.4990    2.2279   21.3536 C   0  0  0  0  0  0  0  0  0  0  0  0
    3.2621    1.4872   22.4114 C   0  0  0  0  0  0  0  0  0  0  0  0
    4.4419    0.6422   22.0320 C   0  0  0  0  0  0  0  0  0  0  0  0
    4.8586    0.5378   20.5948 C   0  0  0  0  0  0  0  0  0  0  0  0
  1  2  1  0  0  0
  2  3  2  0  0  0
  2  4  1  0  0  0
  4  5  1  0  0  0
  6  5  1  0  0  0
  6  7  1  0  0  0
  7  8  1  0  0  0
  8  9  1  0  0  0
  9 10  2  0  0  0
 10 11  1  0  0  0
 10 12  1  0  0  0
 12 16  1  0  0  0
 16 17  2  0  0  0
 17 18  1  0  0  0
 18 19  2  0  0  0
 19 20  1  0  0  0
 20 21  2  0  0  0
 21 22  1  0  0  0
 22 23  2  0  0  0
 23 24  1  0  0  0
 24 25  2  0  0  0
 12 13  1  0  0  0
 13 14  2  0  0  0
 13 15  1  0  0  0
  8  4  1  0  0  0
 15  9  1  0  0  0
 15  6  1  0  0  0
 25 16  1  0  0  0
 25 20  1  0  0  0
M  CHG 1  11  -1
M  END
> <minimizedAffinity>
-8.12645

> <CNNscore>
0.4046625793

> <CNNaffinity>
5.3856015205

> <CNN_VS>
2.1793513298

> <CNNaffinity_variance>
0.1730353087

$$$$



 25 29  0  0  0  0  0  0  0  0999 V2000
    0.6215    3.4710   21.5856 C   0  0  0  0  0  0  0  0  0  0  0  0
    1.0856    3.2923   20.1704 C   0  0  0  0  0  0  0  0  0  0  0  0
    0.2821    3.8635   19.0399 O   0  0  0  0  0  0  0  0  0  0  0  0
    2.3532    2.5425   19.8859 N   0  0  0  0  0  0  0  0  0  0  0  0
    2.9398    2.2850   18.5295 C   0  0  0  0  0  0  0  0  0  0  0  0
    4.2059    1.5019   18.7131 C   0  0  0  0  0  0  0  0  0  0  0  0
    4.4018    1.2753   20.1829 C   0  0  0  0  0  0  0  0  0  0  0  0
    3.2568    1.9184   20.9077 C   0  0  0  0  0  0  0  0  0  0  0  0
    4.5229    1.1352   21.0913 C   0  0  0  0  0  0  0  0  0  0  0  0
    5.4265    0.5112   22.1131 C   0  0  0  0  0  0  0  0  0  0  0  0
    5.2210    0.5274   23.5989 O   0  0  0  0  0  0  0  0  0  0  0  0
    6.5714   -0.1319   21.3883 N   0  0  0  0  0  0  0  0  0  0  0  0
    6.3755    0.0947   19.9185 C   0  0  0  0  0  0  0  0  0  0  0  0
    7.2859   -0.3788   18.8243 O   0  0  0  0  0  0  0  0  0  0  0  0
    5.1094    0.8778   19.7349 N   0  0  0  0  0  0  0  0  0  0  0  0
    7.7121   -0.8718   22.0219 C   0  0  0  0  0  0  0  0  0  0  0  0
    9.1124   -0.3522   21.8829 C   0  0  0  0  0  0  0  0  0  0  0  0
   10.2532   -1.0920   22.5164 N   0  0  0  0  0  0  0  0  0  0  0  0
    9.9937   -2.3512   23.2890 C   0  0  0  0  0  0  0  0  0  0  0  0
    8.5934   -2.8708   23.4280 C   0  0  0  0  0  0  0  0  0  0  0  0
    8.3338   -4.1300   24.2006 C   0  0  0  0  0  0  0  0  0  0  0  0
    6.9335   -4.6496   24.3396 C   0  0  0  0  0  0  0  0  0  0  0  0
    5.7928   -3.9098   23.7060 C   0  0  0  0  0  0  0  0  0  0  0  0
    6.0523   -2.6506   22.9335 C   0  0  0  0  0  0  0  0  0  0  0  0
    7.4526   -2.1310   22.7945 C   0  0  0  0  0  0  0  0  0  0  0  0
  1  2  1  0  0  0
  2  3  2  0  0  0
  2  4  1  0  0  0
  4  5  1  0  0  0
  6  5  1  0  0  0
  6  7  1  0  0  0
  7  8  1  0  0  0
  8  9  1  0  0  0
  9 10  2  0  0  0
 10 11  1  0  0  0
 10 12  1  0  0  0
 12 16  1  0  0  0
 16 17  2  0  0  0
 17 18  1  0  0  0
 18 19  2  0  0  0
 19 20  1  0  0  0
 20 21  2  0  0  0
 21 22  1  0  0  0
 22 23  2  0  0  0
 23 24  1  0  0  0
 24 25  2  0  0  0
 12 13  1  0  0  0
 13 14  2  0  0  0
 13 15  1  0  0  0
  8  4  1  0  0  0
 15  9  1  0  0  0
 15  6  1  0  0  0
 25 16  1  0  0  0
 25 20  1  0  0  0
M  CHG 1  11  -1
M  END
> <minimizedAffinity>
-6.71477

> <CNNscore>
0.3939982057

> <CNNaffinity>
5.5190844536

> <CNN_VS>
2.1745092869

> <CNNaffinity_variance>
0.5316807032

$$$$



 25 29  0  0  0  0  0  0  0  0999 V2000
   12.6353   -0.7326   24.5631 C   0  0  0  0  0  0  0  0  0  0  0  0
   11.8107   -1.9657   24.7855 C   0  0  0  0  0  0  0  0  0  0  0  0
   12.3223   -3.0597   25.6751 O   0  0  0  0  0  0  0  0  0  0  0  0
   10.4744   -2.1047   24.1184 N   0  0  0  0  0  0  0  0  0  0  0  0
    9.5428   -3.2734   24.2456 C   0  0  0  0  0  0  0  0  0  0  0  0
    8.3277   -2.9905   23.4127 C   0  0  0  0  0  0  0  0  0  0  0  0
    8.5084   -1.6469   22.7707 C   0  0  0  0  0  0  0  0  0  0  0  0
    9.8352   -1.0995   23.2068 C   0  0  0  0  0  0  0  0  0  0  0  0
    8.6201   -0.8165   22.3739 C   0  0  0  0  0  0  0  0  0  0  0  0
    7.9809    0.1887   21.4624 C   0  0  0  0  0  0  0  0  0  0  0  0
    8.5657    1.5095   21.0580 O   0  0  0  0  0  0  0  0  0  0  0  0
    6.6543   -0.3587   21.0263 N   0  0  0  0  0  0  0  0  0  0  0  0
    6.4736   -1.7023   21.6683 C   0  0  0  0  0  0  0  0  0  0  0  0
    5.2862   -2.6046   21.5059 O   0  0  0  0  0  0  0  0  0  0  0  0
    7.6885   -1.9853   22.5012 N   0  0  0  0  0  0  0  0  0  0  0  0
    5.6794    0.3184   20.1092 C   0  0  0  0  0  0  0  0  0  0  0  0
    5.9294    0.3365   18.6303 C   0  0  0  0  0  0  0  0  0  0  0  0
    4.9545    1.0136   17.7131 N   0  0  0  0  0  0  0  0  0  0  0  0
    3.7297    1.6726   18.2748 C   0  0  0  0  0  0  0  0  0  0  0  0
    3.4798    1.6545   19.7537 C   0  0  0  0  0  0  0  0  0  0  0  0
    2.2550    2.3135   20.3155 C   0  0  0  0  0  0  0  0  0  0  0  0
    2.0050    2.2954   21.7944 C   0  0  0  0  0  0  0  0  0  0  0  0
    2.9798    1.6183   22.7116 C   0  0  0  0  0  0  0  0  0  0  0  0
    4.2046    0.9593   22.1499 C   0  0  0  0  0  0  0  0  0  0  0  0
    4.4546    0.9774   20.6709 C   0  0  0  0  0  0  0  0  0  0  0  0
  1  2  1  0  0  0
  2  3  2  0  0  0
  2  4  1  0  0  0
  4  5  1  0  0  0
  6  5  1  0  0  0
  6  7  1  0  0  0
  7  8  1  0  0  0
  8  9  1  0  0  0
  9 10  2  0  0  0
 10 11  1  0  0  0
 10 12  1  0  0  0
 12 16  1  0  0  0
 16 17  2  0  0  0
 17 18  1  0  0  0
 18 19  2  0  0  0
 19 20  1  0  0  0
 20 21  2  0  0  0
 21 22  1  0  0  0
 22 23  2  0  0  0
 23 24  1  0  0  0
 24 25  2  0  0  0
 12 13  1  0  0  0
 13 14  2  0  0  0
 13 15  1  0  0  0
  8  4  1  0  0  0
 15  9  1  0  0  0
 15  6  1  0  0  0
 25 16  1  0  0  0
 25 20  1  0  0  0
M  CHG 1  11  -1
M  END
> <minimizedAffinity>
-7.55727

> <CNNscore>
0.3857237399

> <CNNaffinity>
5.4275698662

> <CNN_VS>
2.0935425758

> <CNNaffinity_variance>
0.2653201222

$$$$



 25 29  0  0  0  0  0  0  0  0999 V2000
    2.0911   -1.1647   27.1915 C   0  0  0  0  0  0  0  0  0  0  0  0
    2.2562   -2.5914   26.7589 C   0  0  0  0  0  0  0  0  0  0  0  0
    1.0676   -3.5056   26.7197 O   0  0  0  0  0  0  0  0  0  0  0  0
    3.6099   -3.1040   26.3654 N   0  0  0  0  0  0  0  0  0  0  0  0
    3.9275   -4.4986   25.9137 C   0  0  0  0  0  0  0  0  0  0  0  0
    5.3976   -4.5685   25.6237 C   0  0  0  0  0  0  0  0  0  0  0  0
    5.9885   -3.2170   25.8961 C   0  0  0  0  0  0  0  0  0  0  0  0
    4.8836   -2.3119   26.3545 C   0  0  0  0  0  0  0  0  0  0  0  0
    6.3537   -2.3816   26.0645 C   0  0  0  0  0  0  0  0  0  0  0  0
    7.6275   -1.5895   26.0535 C   0  0  0  0  0  0  0  0  0  0  0  0
    7.7711   -0.1457   26.4342 O   0  0  0  0  0  0  0  0  0  0  0  0
    8.7322   -2.4946   25.5952 N   0  0  0  0  0  0  0  0  0  0  0  0
    8.1413   -3.8461   25.3228 C   0  0  0  0  0  0  0  0  0  0  0  0
    8.8892   -5.0552   24.8443 O   0  0  0  0  0  0  0  0  0  0  0  0
    6.6713   -3.7764   25.6128 N   0  0  0  0  0  0  0  0  0  0  0  0
   10.1747   -2.1149   25.4369 C   0  0  0  0  0  0  0  0  0  0  0  0
   11.2332   -2.8566   26.1982 C   0  0  0  0  0  0  0  0  0  0  0  0
   12.6758   -2.4771   26.0401 N   0  0  0  0  0  0  0  0  0  0  0  0
   13.0598   -1.3558   25.1206 C   0  0  0  0  0  0  0  0  0  0  0  0
   12.0013   -0.6142   24.3594 C   0  0  0  0  0  0  0  0  0  0  0  0
   12.3853    0.5070   23.4399 C   0  0  0  0  0  0  0  0  0  0  0  0
   11.3268    1.2487   22.6787 C   0  0  0  0  0  0  0  0  0  0  0  0
    9.8843    0.8692   22.8368 C   0  0  0  0  0  0  0  0  0  0  0  0
    9.5003   -0.2520   23.7562 C   0  0  0  0  0  0  0  0  0  0  0  0
   10.5588   -0.9937   24.5175 C   0  0  0  0  0  0  0  0  0  0  0  0
  1  2  1  0  0  0
  2  3  2  0  0  0
  2  4  1  0  0  0
  4  5  1  0  0  0
  6  5  1  0  0  0
  6  7  1  0  0  0
  7  8  1  0  0  0
  8  9  1  0  0  0
  9 10  2  0  0  0
 10 11  1  0  0  0
 10 12  1  0  0  0
 12 16  1  0  0  0
 16 17  2  0  0  0
 17 18  1  0  0  0
 18 19  2  0  0  0
 19 20  1  0  0  0
 20 21  2  0  0  0
 21 22  1  0  0  0
 22 23  2  0  0  0
 23 24  1  0  0  0
 24 25  2  0  0  0
 12 13  1  0  0  0
 13 14  2  0  0  0
 13 15  1  0  0  0
  8  4  1  0  0  0
 15  9  1  0  0  0
 15  6  1  0  0  0
 25 16  1  0  0  0
 25 20  1  0  0  0
M  CHG 1  11  -1
M  END
> <minimizedAffinity>
-6.15728

> <CNNscore>
0.3593892455

> <CNNaffinity>
5.5530753136

> <CNN_VS>
1.9957154989

> <CNNaffinity_variance>
0.6999264956

$$$$



 25 29  0  0  0  0  0  0  0  0999 V2000
    4.3989    1.0376   18.6650 C   0  0  0  0  0  0  0  0  0  0  0  0
    3.7666    1.3051   19.9986 C   0  0  0  0  0  0  0  0  0  0  0  0
    2.3460    1.7808   20.0732 O   0  0  0  0  0  0  0  0  0  0  0  0
    4.5549    1.0970   21.2577 N   0  0  0  0  0  0  0  0  0  0  0  0
    4.0593    1.3217   22.6555 C   0  0  0  0  0  0  0  0  0  0  0  0
    5.1753    0.9911   23.6018 C   0  0  0  0  0  0  0  0  0  0  0  0
    6.3606    0.5620   22.7888 C   0  0  0  0  0  0  0  0  0  0  0  0
    5.9771    0.6274   21.3401 C   0  0  0  0  0  0  0  0  0  0  0  0
    7.0931    0.2968   22.2862 C   0  0  0  0  0  0  0  0  0  0  0  0
    8.5154   -0.1727   22.3686 C   0  0  0  0  0  0  0  0  0  0  0  0
    9.3990   -0.5165   21.2062 O   0  0  0  0  0  0  0  0  0  0  0  0
    8.8988   -0.2381   23.8172 N   0  0  0  0  0  0  0  0  0  0  0  0
    7.7135    0.1910   24.6302 C   0  0  0  0  0  0  0  0  0  0  0  0
    7.6546    0.2748   26.1268 O   0  0  0  0  0  0  0  0  0  0  0  0
    6.5975    0.5216   23.6841 N   0  0  0  0  0  0  0  0  0  0  0  0
   10.2332   -0.6587   24.3580 C   0  0  0  0  0  0  0  0  0  0  0  0
   11.4551    0.1580   24.0583 C   0  0  0  0  0  0  0  0  0  0  0  0
   12.7895   -0.2625   24.5991 N   0  0  0  0  0  0  0  0  0  0  0  0
   12.9020   -1.4998   25.4396 C   0  0  0  0  0  0  0  0  0  0  0  0
   11.6801   -2.3165   25.7393 C   0  0  0  0  0  0  0  0  0  0  0  0
   11.7926   -3.5538   26.5798 C   0  0  0  0  0  0  0  0  0  0  0  0
   10.5707   -4.3706   26.8795 C   0  0  0  0  0  0  0  0  0  0  0  0
    9.2362   -3.9501   26.3387 C   0  0  0  0  0  0  0  0  0  0  0  0
    9.1237   -2.7128   25.4982 C   0  0  0  0  0  0  0  0  0  0  0  0
   10.3457   -1.8960   25.1985 C   0  0  0  0  0  0  0  0  0  0  0  0
  1  2  1  0  0  0
  2  3  2  0  0  0
  2  4  1  0  0  0
  4  5  1  0  0  0
  6  5  1  0  0  0
  6  7  1  0  0  0
  7  8  1  0  0  0
  8  9  1  0  0  0
  9 10  2  0  0  0
 10 11  1  0  0  0
 10 12  1  0  0  0
 12 16  1  0  0  0
 16 17  2  0  0  0
 17 18  1  0  0  0
 18 19  2  0  0  0
 19 20  1  0  0  0
 20 21  2  0  0  0
 21 22  1  0  0  0
 22 23  2  0  0  0
 23 24  1  0  0  0
 24 25  2  0  0  0
 12 13  1  0  0  0
 13 14  2  0  0  0
 13 15  1  0  0  0
  8  4  1  0  0  0
 15  9  1  0  0  0
 15  6  1  0  0  0
 25 16  1  0  0  0
 25 20  1  0  0  0
M  CHG 1  11  -1
M  END
> <minimizedAffinity>
-7.51419

> <CNNscore>
0.3064715862

> <CNNaffinity>
5.3610415459

> <CNN_VS>
1.6430069208

> <CNNaffinity_variance>
0.2796623409

$$$$



 25 29  0  0  0  0  0  0  0  0999 V2000
    1.1840   -4.3829   27.4673 C   0  0  0  0  0  0  0  0  0  0  0  0
    1.6620   -5.7396   27.0422 C   0  0  0  0  0  0  0  0  0  0  0  0
    0.8098   -6.9479   27.2941 O   0  0  0  0  0  0  0  0  0  0  0  0
    2.9923   -5.8880   26.3652 N   0  0  0  0  0  0  0  0  0  0  0  0
    3.5995   -7.1733   25.8864 C   0  0  0  0  0  0  0  0  0  0  0  0
    4.9314   -6.8568   25.2734 C   0  0  0  0  0  0  0  0  0  0  0  0
    5.1475   -5.3759   25.3735 C   0  0  0  0  0  0  0  0  0  0  0  0
    3.9491   -4.7771   26.0482 C   0  0  0  0  0  0  0  0  0  0  0  0
    5.2811   -4.4605   25.4353 C   0  0  0  0  0  0  0  0  0  0  0  0
    6.2379   -3.3496   25.1183 C   0  0  0  0  0  0  0  0  0  0  0  0
    6.0322   -1.8953   25.4226 O   0  0  0  0  0  0  0  0  0  0  0  0
    7.4362   -3.9484   24.4435 N   0  0  0  0  0  0  0  0  0  0  0  0
    7.2201   -5.4293   24.3435 C   0  0  0  0  0  0  0  0  0  0  0  0
    8.1694   -6.4199   23.7370 O   0  0  0  0  0  0  0  0  0  0  0  0
    5.8882   -5.7459   24.9564 N   0  0  0  0  0  0  0  0  0  0  0  0
    8.6395   -3.1980   23.9546 C   0  0  0  0  0  0  0  0  0  0  0  0
    8.5803   -2.4504   22.6555 C   0  0  0  0  0  0  0  0  0  0  0  0
    9.7835   -1.7000   22.1665 N   0  0  0  0  0  0  0  0  0  0  0  0
   11.0459   -1.6972   22.9765 C   0  0  0  0  0  0  0  0  0  0  0  0
   11.1052   -2.4448   24.2756 C   0  0  0  0  0  0  0  0  0  0  0  0
   12.3676   -2.4420   25.0857 C   0  0  0  0  0  0  0  0  0  0  0  0
   12.4268   -3.1896   26.3848 C   0  0  0  0  0  0  0  0  0  0  0  0
   11.2236   -3.9400   26.8738 C   0  0  0  0  0  0  0  0  0  0  0  0
    9.9612   -3.9428   26.0638 C   0  0  0  0  0  0  0  0  0  0  0  0
    9.9019   -3.1952   24.7647 C   0  0  0  0  0  0  0  0  0  0  0  0
  1  2  1  0  0  0
  2  3  2  0  0  0
  2  4  1  0  0  0
  4  5  1  0  0  0
  6  5  1  0  0  0
  6  7  1  0  0  0
  7  8  1  0  0  0
  8  9  1  0  0  0
  9 10  2  0  0  0
 10 11  1  0  0  0
 10 12  1  0  0  0
 12 16  1  0  0  0
 16 17  2  0  0  0
 17 18  1  0  0  0
 18 19  2  0  0  0
 19 20  1  0  0  0
 20 21  2  0  0  0
 21 22  1  0  0  0
 22 23  2  0  0  0
 23 24  1  0  0  0
 24 25  2  0  0  0
 12 13  1  0  0  0
 13 14  2  0  0  0
 13 15  1  0  0  0
  8  4  1  0  0  0
 15  9  1  0  0  0
 15  6  1  0  0  0
 25 16  1  0  0  0
 25 20  1  0  0  0
M  CHG 1  11  -1
M  END
> <minimizedAffinity>
-6.81974

> <CNNscore>
0.3041484952

> <CNNaffinity>
5.3860502243

> <CNN_VS>
1.6381590366

> <CNNaffinity_variance>
0.2687515318

$$$$



 25 29  0  0  0  0  0  0  0  0999 V2000
    1.0980    4.1545   21.6485 C   0  0  0  0  0  0  0  0  0  0  0  0
    1.3334    3.6558   20.2536 C   0  0  0  0  0  0  0  0  0  0  0  0
    0.3518    3.9784   19.1662 O   0  0  0  0  0  0  0  0  0  0  0  0
    2.5504    2.8346   19.9460 N   0  0  0  0  0  0  0  0  0  0  0  0
    2.9172    2.2696   18.6058 C   0  0  0  0  0  0  0  0  0  0  0  0
    4.2077    1.5200   18.7561 C   0  0  0  0  0  0  0  0  0  0  0  0
    4.6385    1.6217   20.1893 C   0  0  0  0  0  0  0  0  0  0  0  0
    3.6142    2.4342   20.9247 C   0  0  0  0  0  0  0  0  0  0  0  0
    4.9048    1.6845   21.0751 C   0  0  0  0  0  0  0  0  0  0  0  0
    5.9687    1.2841   22.0538 C   0  0  0  0  0  0  0  0  0  0  0  0
    6.0023    1.6346   23.5119 O   0  0  0  0  0  0  0  0  0  0  0  0
    6.9929    0.4717   21.3185 N   0  0  0  0  0  0  0  0  0  0  0  0
    6.5621    0.3700   19.8853 C   0  0  0  0  0  0  0  0  0  0  0  0
    7.2934   -0.3542   18.7940 O   0  0  0  0  0  0  0  0  0  0  0  0
    5.2716    1.1196   19.7348 N   0  0  0  0  0  0  0  0  0  0  0  0
    8.2307   -0.1330   21.9120 C   0  0  0  0  0  0  0  0  0  0  0  0
    8.3349   -1.6205   22.0744 C   0  0  0  0  0  0  0  0  0  0  0  0
    9.5727   -2.2253   22.6679 N   0  0  0  0  0  0  0  0  0  0  0  0
   10.7062   -1.3425   23.0989 C   0  0  0  0  0  0  0  0  0  0  0  0
   10.6020    0.1450   22.9365 C   0  0  0  0  0  0  0  0  0  0  0  0
   11.7355    1.0278   23.3675 C   0  0  0  0  0  0  0  0  0  0  0  0
   11.6313    2.5154   23.2051 C   0  0  0  0  0  0  0  0  0  0  0  0
   10.3935    3.1201   22.6116 C   0  0  0  0  0  0  0  0  0  0  0  0
    9.2600    2.2374   22.1806 C   0  0  0  0  0  0  0  0  0  0  0  0
    9.3642    0.7498   22.3430 C   0  0  0  0  0  0  0  0  0  0  0  0
  1  2  1  0  0  0
  2  3  2  0  0  0
  2  4  1  0  0  0
  4  5  1  0  0  0
  6  5  1  0  0  0
  6  7  1  0  0  0
  7  8  1  0  0  0
  8  9  1  0  0  0
  9 10  2  0  0  0
 10 11  1  0  0  0
 10 12  1  0  0  0
 12 16  1  0  0  0
 16 17  2  0  0  0
 17 18  1  0  0  0
 18 19  2  0  0  0
 19 20  1  0  0  0
 20 21  2  0  0  0
 21 22  1  0  0  0
 22 23  2  0  0  0
 23 24  1  0  0  0
 24 25  2  0  0  0
 12 13  1  0  0  0
 13 14  2  0  0  0
 13 15  1  0  0  0
  8  4  1  0  0  0
 15  9  1  0  0  0
 15  6  1  0  0  0
 25 16  1  0  0  0
 25 20  1  0  0  0
M  CHG 1  11  -1
M  END
> <minimizedAffinity>
-7.67826

> <CNNscore>
0.2786877453

> <CNNaffinity>
5.3153715134

> <CNN_VS>
1.4813288450

> <CNNaffinity_variance>
0.1404857934

$$$$
