


 34 39  0  0  0  0  0  0  0  0999 V2000
   -9.9128   -2.1595  -23.2698 C   0  0  0  0  0  0  0  0  0  0  0  0
   -8.5743   -2.3971  -22.6358 C   0  0  0  0  0  0  0  0  0  0  0  0
   -8.2325   -1.3373  -21.6307 C   0  0  0  0  0  0  0  0  0  0  0  0
   -6.8853   -1.6608  -21.0560 N   0  0  0  0  0  0  0  0  0  0  0  0
   -6.3944   -2.9204  -21.7059 C   0  0  0  0  0  0  0  0  0  0  0  0
   -5.0888   -3.6048  -21.4281 O   0  0  0  0  0  0  0  0  0  0  0  0
   -7.4382   -3.3755  -22.6822 C   0  0  0  0  0  0  0  0  0  0  0  0
   -6.2323   -4.2653  -22.6196 C   0  0  0  0  0  0  0  0  0  0  0  0
   -6.1539   -5.4847  -23.4896 N   0  0  0  0  0  0  0  0  0  0  0  0
   -7.2814   -5.8143  -24.4223 C   0  0  0  0  0  0  0  0  0  0  0  0
   -7.2030   -7.0337  -25.2923 O   0  0  0  0  0  0  0  0  0  0  0  0
   -8.4874   -4.9245  -24.4850 C   0  0  0  0  0  0  0  0  0  0  0  0
   -9.6150   -5.2541  -25.4177 C   0  0  0  0  0  0  0  0  0  0  0  0
  -10.8209   -4.3643  -25.4804 C   0  0  0  0  0  0  0  0  0  0  0  0
  -10.8993   -3.1449  -24.6104 C   0  0  0  0  0  0  0  0  0  0  0  0
  -12.1053   -2.2551  -24.6731 Cl  0  0  0  0  0  0  0  0  0  0  0  0
   -9.7718   -2.8153  -23.6777 C   0  0  0  0  0  0  0  0  0  0  0  0
   -8.5659   -3.7051  -23.6150 C   0  0  0  0  0  0  0  0  0  0  0  0
   -6.1568   -0.8644  -20.0143 C   0  0  0  0  0  0  0  0  0  0  0  0
   -6.6337   -0.8756  -18.5923 C   0  0  0  0  0  0  0  0  0  0  0  0
   -5.9052   -0.0792  -17.5506 N   0  0  0  0  0  0  0  0  0  0  0  0
   -4.6998    0.7283  -17.9311 C   0  0  0  0  0  0  0  0  0  0  0  0
   -4.2229    0.7395  -19.3532 C   0  0  0  0  0  0  0  0  0  0  0  0
   -3.0174    1.5472  -19.7337 C   0  0  0  0  0  0  0  0  0  0  0  0
   -2.5405    1.5583  -21.1558 C   0  0  0  0  0  0  0  0  0  0  0  0
   -3.2691    0.7620  -22.1974 C   0  0  0  0  0  0  0  0  0  0  0  0
   -4.4745   -0.0456  -21.8170 C   0  0  0  0  0  0  0  0  0  0  0  0
   -4.9514   -0.0568  -20.3949 C   0  0  0  0  0  0  0  0  0  0  0  0
   -4.9479   -6.3745  -23.4269 C   0  0  0  0  0  0  0  0  0  0  0  0
   -4.3045   -7.2156  -22.3647 C   0  0  0  0  0  0  0  0  0  0  0  0
   -3.2424   -7.6328  -23.3383 N   0  0  0  0  0  0  0  0  0  0  0  0
   -3.8858   -6.7916  -24.4005 C   0  0  0  0  0  0  0  0  0  0  0  0
   -2.4223   -8.2378  -23.2956 H   0  0  0  0  0  0  0  0  0  0  0  0
   -2.7425   -7.6760  -24.2264 H   0  0  0  0  0  0  0  0  0  0  0  0
  2  1  1  0  0  0
  2  3  1  0  0  0
  3  4  1  0  0  0
  4 19  1  0  0  0
 19 20  2  0  0  0
 20 21  1  0  0  0
 21 22  2  0  0  0
 22 23  1  0  0  0
 23 24  2  0  0  0
 24 25  1  0  0  0
 25 26  2  0  0  0
 26 27  1  0  0  0
 27 28  2  0  0  0
  4  5  1  0  0  0
  5  6  2  0  0  0
  5  7  1  0  0  0
  7  8  1  0  0  0
  8  9  1  0  0  0
  9 29  1  0  0  0
 29 30  1  0  0  0
 30 31  1  0  0  0
 31 32  1  0  0  0
  9 10  1  0  0  0
 10 11  2  0  0  0
 10 12  1  0  0  0
 12 13  2  0  0  0
 13 14  1  0  0  0
 14 15  2  0  0  0
 15 16  1  0  0  0
 15 17  1  0  0  0
 17 18  2  0  0  0
  7  2  1  0  0  0
 32 29  1  0  0  0
 18 12  1  0  0  0
 28 19  1  0  0  0
 18  7  1  0  0  0
 28 23  1  0  0  0
 31 33  1  0  0  0
 31 34  1  0  0  0
M  CHG 1  31   1
M  END
> <minimizedAffinity>
-7.31292

> <CNNscore>
0.5390476584

> <CNNaffinity>
6.3070993423

> <CNN_VS>
3.3998272419

> <CNNaffinity_variance>
0.2085535973

$$$$



 34 39  0  0  0  0  0  0  0  0999 V2000
   -7.4183   -4.4412  -23.3790 C   0  0  0  0  0  0  0  0  0  0  0  0
   -7.6614   -3.1158  -22.7200 C   0  0  0  0  0  0  0  0  0  0  0  0
   -6.5638   -2.7541  -21.7637 C   0  0  0  0  0  0  0  0  0  0  0  0
   -6.8957   -1.4219  -21.1596 N   0  0  0  0  0  0  0  0  0  0  0  0
   -8.1984   -0.9602  -21.7425 C   0  0  0  0  0  0  0  0  0  0  0  0
   -8.9040    0.3231  -21.4181 O   0  0  0  0  0  0  0  0  0  0  0  0
   -8.6716   -2.0071  -22.7069 C   0  0  0  0  0  0  0  0  0  0  0  0
   -9.5900   -0.8271  -22.5884 C   0  0  0  0  0  0  0  0  0  0  0  0
  -10.8519   -0.7745  -23.3976 N   0  0  0  0  0  0  0  0  0  0  0  0
  -11.1954   -1.9020  -24.3254 C   0  0  0  0  0  0  0  0  0  0  0  0
  -12.4573   -1.8494  -25.1346 O   0  0  0  0  0  0  0  0  0  0  0  0
  -10.2770   -3.0821  -24.4440 C   0  0  0  0  0  0  0  0  0  0  0  0
  -10.6205   -4.2095  -25.3717 C   0  0  0  0  0  0  0  0  0  0  0  0
   -9.7022   -5.3896  -25.4903 C   0  0  0  0  0  0  0  0  0  0  0  0
   -8.4403   -5.4421  -24.6810 C   0  0  0  0  0  0  0  0  0  0  0  0
   -7.5219   -6.6222  -24.7996 Cl  0  0  0  0  0  0  0  0  0  0  0  0
   -8.0968   -4.3147  -23.7533 C   0  0  0  0  0  0  0  0  0  0  0  0
   -9.0151   -3.1346  -23.6347 C   0  0  0  0  0  0  0  0  0  0  0  0
   -6.0699   -0.6813  -20.1498 C   0  0  0  0  0  0  0  0  0  0  0  0
   -6.4705   -0.6864  -18.7044 C   0  0  0  0  0  0  0  0  0  0  0  0
   -5.6447    0.0541  -17.6946 N   0  0  0  0  0  0  0  0  0  0  0  0
   -4.4184    0.7999  -18.1304 C   0  0  0  0  0  0  0  0  0  0  0  0
   -4.0178    0.8050  -19.5759 C   0  0  0  0  0  0  0  0  0  0  0  0
   -2.7914    1.5508  -20.0117 C   0  0  0  0  0  0  0  0  0  0  0  0
   -2.3909    1.5559  -21.4572 C   0  0  0  0  0  0  0  0  0  0  0  0
   -3.2166    0.8153  -22.4669 C   0  0  0  0  0  0  0  0  0  0  0  0
   -4.4430    0.0696  -22.0311 C   0  0  0  0  0  0  0  0  0  0  0  0
   -4.8436    0.0644  -20.5857 C   0  0  0  0  0  0  0  0  0  0  0  0
  -11.7703    0.4056  -23.2791 C   0  0  0  0  0  0  0  0  0  0  0  0
  -11.6157    1.8293  -22.8332 C   0  0  0  0  0  0  0  0  0  0  0  0
  -13.0692    2.0744  -23.1114 N   0  0  0  0  0  0  0  0  0  0  0  0
  -13.2238    0.6506  -23.5573 C   0  0  0  0  0  0  0  0  0  0  0  0
  -13.6937    2.8768  -23.0308 H   0  0  0  0  0  0  0  0  0  0  0  0
  -14.0225    1.8578  -23.4022 H   0  0  0  0  0  0  0  0  0  0  0  0
  2  1  1  0  0  0
  2  3  1  0  0  0
  3  4  1  0  0  0
  4 19  1  0  0  0
 19 20  2  0  0  0
 20 21  1  0  0  0
 21 22  2  0  0  0
 22 23  1  0  0  0
 23 24  2  0  0  0
 24 25  1  0  0  0
 25 26  2  0  0  0
 26 27  1  0  0  0
 27 28  2  0  0  0
  4  5  1  0  0  0
  5  6  2  0  0  0
  5  7  1  0  0  0
  7  8  1  0  0  0
  8  9  1  0  0  0
  9 29  1  0  0  0
 29 30  1  0  0  0
 30 31  1  0  0  0
 31 32  1  0  0  0
  9 10  1  0  0  0
 10 11  2  0  0  0
 10 12  1  0  0  0
 12 13  2  0  0  0
 13 14  1  0  0  0
 14 15  2  0  0  0
 15 16  1  0  0  0
 15 17  1  0  0  0
 17 18  2  0  0  0
  7  2  1  0  0  0
 32 29  1  0  0  0
 18 12  1  0  0  0
 28 19  1  0  0  0
 18  7  1  0  0  0
 28 23  1  0  0  0
 31 33  1  0  0  0
 31 34  1  0  0  0
M  CHG 1  31   1
M  END
> <minimizedAffinity>
-8.38335

> <CNNscore>
0.4940383136

> <CNNaffinity>
6.2937059402

> <CNN_VS>
3.1093318462

> <CNNaffinity_variance>
0.1513880938

$$$$



 34 39  0  0  0  0  0  0  0  0999 V2000
   -5.7753   -5.2848  -23.4863 C   0  0  0  0  0  0  0  0  0  0  0  0
   -6.4396   -4.1317  -22.7940 C   0  0  0  0  0  0  0  0  0  0  0  0
   -5.5273   -3.4688  -21.8050 C   0  0  0  0  0  0  0  0  0  0  0  0
   -6.2773   -2.3360  -21.1693 N   0  0  0  0  0  0  0  0  0  0  0  0
   -7.6532   -2.2987  -21.7656 C   0  0  0  0  0  0  0  0  0  0  0  0
   -8.7383   -1.3229  -21.4186 O   0  0  0  0  0  0  0  0  0  0  0  0
   -7.7536   -3.4085  -22.7697 C   0  0  0  0  0  0  0  0  0  0  0  0
   -9.0046   -2.5919  -22.6360 C   0  0  0  0  0  0  0  0  0  0  0  0
  -10.2076   -2.9207  -23.4694 N   0  0  0  0  0  0  0  0  0  0  0  0
  -10.1596   -4.0662  -24.4366 C   0  0  0  0  0  0  0  0  0  0  0  0
  -11.3626   -4.3951  -25.2700 O   0  0  0  0  0  0  0  0  0  0  0  0
   -8.9085   -4.8829  -24.5704 C   0  0  0  0  0  0  0  0  0  0  0  0
   -8.8605   -6.0284  -25.5375 C   0  0  0  0  0  0  0  0  0  0  0  0
   -7.6094   -6.8451  -25.6713 C   0  0  0  0  0  0  0  0  0  0  0  0
   -6.4064   -6.5162  -24.8378 C   0  0  0  0  0  0  0  0  0  0  0  0
   -5.1553   -7.3329  -24.9716 Cl  0  0  0  0  0  0  0  0  0  0  0  0
   -6.4544   -5.3707  -23.8707 C   0  0  0  0  0  0  0  0  0  0  0  0
   -7.7055   -4.5541  -23.7369 C   0  0  0  0  0  0  0  0  0  0  0  0
   -5.7450   -1.4040  -20.1215 C   0  0  0  0  0  0  0  0  0  0  0  0
   -6.1704   -1.5615  -18.6918 C   0  0  0  0  0  0  0  0  0  0  0  0
   -5.6380   -0.6295  -17.6439 N   0  0  0  0  0  0  0  0  0  0  0  0
   -4.6802    0.4599  -18.0258 C   0  0  0  0  0  0  0  0  0  0  0  0
   -4.2548    0.6173  -19.4556 C   0  0  0  0  0  0  0  0  0  0  0  0
   -3.2970    1.7068  -19.8375 C   0  0  0  0  0  0  0  0  0  0  0  0
   -2.8716    1.8641  -21.2673 C   0  0  0  0  0  0  0  0  0  0  0  0
   -3.4040    0.9322  -22.3151 C   0  0  0  0  0  0  0  0  0  0  0  0
   -4.3618   -0.1572  -21.9332 C   0  0  0  0  0  0  0  0  0  0  0  0
   -4.7872   -0.3146  -20.5035 C   0  0  0  0  0  0  0  0  0  0  0  0
  -11.4587   -2.1040  -23.3356 C   0  0  0  0  0  0  0  0  0  0  0  0
  -11.9412   -0.8021  -23.9030 C   0  0  0  0  0  0  0  0  0  0  0  0
  -13.2280   -0.9491  -23.1464 N   0  0  0  0  0  0  0  0  0  0  0  0
  -12.7455   -2.2511  -22.5789 C   0  0  0  0  0  0  0  0  0  0  0  0
  -14.0788   -0.3938  -23.0554 H   0  0  0  0  0  0  0  0  0  0  0  0
  -13.9109   -1.3803  -22.5233 H   0  0  0  0  0  0  0  0  0  0  0  0
  2  1  1  0  0  0
  2  3  1  0  0  0
  3  4  1  0  0  0
  4 19  1  0  0  0
 19 20  2  0  0  0
 20 21  1  0  0  0
 21 22  2  0  0  0
 22 23  1  0  0  0
 23 24  2  0  0  0
 24 25  1  0  0  0
 25 26  2  0  0  0
 26 27  1  0  0  0
 27 28  2  0  0  0
  4  5  1  0  0  0
  5  6  2  0  0  0
  5  7  1  0  0  0
  7  8  1  0  0  0
  8  9  1  0  0  0
  9 29  1  0  0  0
 29 30  1  0  0  0
 30 31  1  0  0  0
 31 32  1  0  0  0
  9 10  1  0  0  0
 10 11  2  0  0  0
 10 12  1  0  0  0
 12 13  2  0  0  0
 13 14  1  0  0  0
 14 15  2  0  0  0
 15 16  1  0  0  0
 15 17  1  0  0  0
 17 18  2  0  0  0
  7  2  1  0  0  0
 32 29  1  0  0  0
 18 12  1  0  0  0
 28 19  1  0  0  0
 18  7  1  0  0  0
 28 23  1  0  0  0
 31 33  1  0  0  0
 31 34  1  0  0  0
M  CHG 1  31   1
M  END
> <minimizedAffinity>
-8.62737

> <CNNscore>
0.3745654821

> <CNNaffinity>
6.0564565659

> <CNN_VS>
2.2685396671

> <CNNaffinity_variance>
0.1396022290

$$$$



 34 39  0  0  0  0  0  0  0  0999 V2000
  -10.5403   -2.0553  -24.1879 C   0  0  0  0  0  0  0  0  0  0  0  0
  -10.2205   -0.6543  -23.7575 C   0  0  0  0  0  0  0  0  0  0  0  0
  -11.4085    0.2541  -23.8734 C   0  0  0  0  0  0  0  0  0  0  0  0
  -10.9912    1.6227  -23.4232 N   0  0  0  0  0  0  0  0  0  0  0  0
   -9.5452    1.5601  -23.0291 C   0  0  0  0  0  0  0  0  0  0  0  0
   -8.7204    2.7040  -22.5180 O   0  0  0  0  0  0  0  0  0  0  0  0
   -9.0689    0.1528  -23.2357 C   0  0  0  0  0  0  0  0  0  0  0  0
   -8.0151    1.0828  -22.7117 C   0  0  0  0  0  0  0  0  0  0  0  0
   -6.6304    0.5723  -22.4436 N   0  0  0  0  0  0  0  0  0  0  0  0
   -6.2994   -0.8681  -22.6994 C   0  0  0  0  0  0  0  0  0  0  0  0
   -4.9147   -1.3786  -22.4313 O   0  0  0  0  0  0  0  0  0  0  0  0
   -7.3532   -1.7982  -23.2234 C   0  0  0  0  0  0  0  0  0  0  0  0
   -7.0223   -3.2387  -23.4792 C   0  0  0  0  0  0  0  0  0  0  0  0
   -8.0761   -4.1687  -24.0031 C   0  0  0  0  0  0  0  0  0  0  0  0
   -9.4608   -3.6582  -24.2713 C   0  0  0  0  0  0  0  0  0  0  0  0
  -10.5147   -4.5883  -24.7953 Cl  0  0  0  0  0  0  0  0  0  0  0  0
   -9.7918   -2.2177  -24.0155 C   0  0  0  0  0  0  0  0  0  0  0  0
   -8.7380   -1.2877  -23.4915 C   0  0  0  0  0  0  0  0  0  0  0  0
  -11.8661    2.8401  -23.3755 C   0  0  0  0  0  0  0  0  0  0  0  0
  -12.9452    2.9481  -22.3393 C   0  0  0  0  0  0  0  0  0  0  0  0
  -13.8201    4.1655  -22.2916 N   0  0  0  0  0  0  0  0  0  0  0  0
  -13.6159    5.2750  -23.2801 C   0  0  0  0  0  0  0  0  0  0  0  0
  -12.5368    5.1671  -24.3164 C   0  0  0  0  0  0  0  0  0  0  0  0
  -12.3326    6.2767  -25.3050 C   0  0  0  0  0  0  0  0  0  0  0  0
  -11.2534    6.1686  -26.3412 C   0  0  0  0  0  0  0  0  0  0  0  0
  -10.3786    4.9512  -26.3889 C   0  0  0  0  0  0  0  0  0  0  0  0
  -10.5828    3.8417  -25.4003 C   0  0  0  0  0  0  0  0  0  0  0  0
  -11.6618    3.9496  -24.3641 C   0  0  0  0  0  0  0  0  0  0  0  0
   -5.5765    1.5024  -21.9196 C   0  0  0  0  0  0  0  0  0  0  0  0
   -4.6865    1.5245  -20.7125 C   0  0  0  0  0  0  0  0  0  0  0  0
   -4.0862    2.8177  -21.1787 N   0  0  0  0  0  0  0  0  0  0  0  0
   -4.9763    2.7956  -22.3859 C   0  0  0  0  0  0  0  0  0  0  0  0
   -3.3697    3.4502  -20.8224 H   0  0  0  0  0  0  0  0  0  0  0  0
   -3.9408    3.6244  -21.7857 H   0  0  0  0  0  0  0  0  0  0  0  0
  2  1  1  0  0  0
  2  3  1  0  0  0
  3  4  1  0  0  0
  4 19  1  0  0  0
 19 20  2  0  0  0
 20 21  1  0  0  0
 21 22  2  0  0  0
 22 23  1  0  0  0
 23 24  2  0  0  0
 24 25  1  0  0  0
 25 26  2  0  0  0
 26 27  1  0  0  0
 27 28  2  0  0  0
  4  5  1  0  0  0
  5  6  2  0  0  0
  5  7  1  0  0  0
  7  8  1  0  0  0
  8  9  1  0  0  0
  9 29  1  0  0  0
 29 30  1  0  0  0
 30 31  1  0  0  0
 31 32  1  0  0  0
  9 10  1  0  0  0
 10 11  2  0  0  0
 10 12  1  0  0  0
 12 13  2  0  0  0
 13 14  1  0  0  0
 14 15  2  0  0  0
 15 16  1  0  0  0
 15 17  1  0  0  0
 17 18  2  0  0  0
  7  2  1  0  0  0
 32 29  1  0  0  0
 18 12  1  0  0  0
 28 19  1  0  0  0
 18  7  1  0  0  0
 28 23  1  0  0  0
 31 33  1  0  0  0
 31 34  1  0  0  0
M  CHG 1  31   1
M  END
> <minimizedAffinity>
-7.13774

> <CNNscore>
0.2790126801

> <CNNaffinity>
5.9827828407

> <CNN_VS>
1.6692723036

> <CNNaffinity_variance>
0.0653716177

$$$$



 34 39  0  0  0  0  0  0  0  0999 V2000
   -5.8503    3.1268  -25.3498 C   0  0  0  0  0  0  0  0  0  0  0  0
   -6.6836    2.4399  -24.3086 C   0  0  0  0  0  0  0  0  0  0  0  0
   -8.1451    2.4774  -24.6441 C   0  0  0  0  0  0  0  0  0  0  0  0
   -8.8899    1.7700  -23.5510 N   0  0  0  0  0  0  0  0  0  0  0  0
   -7.8887    1.2954  -22.5399 C   0  0  0  0  0  0  0  0  0  0  0  0
   -8.1969    0.5395  -21.2815 O   0  0  0  0  0  0  0  0  0  0  0  0
   -6.5251    1.7094  -23.0081 C   0  0  0  0  0  0  0  0  0  0  0  0
   -6.5227    0.9623  -21.7075 C   0  0  0  0  0  0  0  0  0  0  0  0
   -5.2280    0.6931  -20.9995 N   0  0  0  0  0  0  0  0  0  0  0  0
   -3.9356    1.1710  -21.5922 C   0  0  0  0  0  0  0  0  0  0  0  0
   -2.6409    0.9018  -20.8843 O   0  0  0  0  0  0  0  0  0  0  0  0
   -3.9379    1.9182  -22.8929 C   0  0  0  0  0  0  0  0  0  0  0  0
   -2.6456    2.3962  -23.4856 C   0  0  0  0  0  0  0  0  0  0  0  0
   -2.6480    3.1434  -24.7862 C   0  0  0  0  0  0  0  0  0  0  0  0
   -3.9427    3.4126  -25.4942 C   0  0  0  0  0  0  0  0  0  0  0  0
   -3.9450    4.1598  -26.7949 Cl  0  0  0  0  0  0  0  0  0  0  0  0
   -5.2350    2.9346  -24.9015 C   0  0  0  0  0  0  0  0  0  0  0  0
   -5.2327    2.1874  -23.6009 C   0  0  0  0  0  0  0  0  0  0  0  0
  -10.3751    1.5720  -23.4812 C   0  0  0  0  0  0  0  0  0  0  0  0
  -11.2956    2.7492  -23.6106 C   0  0  0  0  0  0  0  0  0  0  0  0
  -12.7808    2.5512  -23.5408 N   0  0  0  0  0  0  0  0  0  0  0  0
  -13.3455    1.1759  -23.3416 C   0  0  0  0  0  0  0  0  0  0  0  0
  -12.4250   -0.0013  -23.2122 C   0  0  0  0  0  0  0  0  0  0  0  0
  -12.9898   -1.3767  -23.0130 C   0  0  0  0  0  0  0  0  0  0  0  0
  -12.0692   -2.5539  -22.8836 C   0  0  0  0  0  0  0  0  0  0  0  0
  -10.5840   -2.3558  -22.9534 C   0  0  0  0  0  0  0  0  0  0  0  0
  -10.0193   -0.9805  -23.1526 C   0  0  0  0  0  0  0  0  0  0  0  0
  -10.9398    0.1967  -23.2820 C   0  0  0  0  0  0  0  0  0  0  0  0
   -5.2256   -0.0542  -19.6988 C   0  0  0  0  0  0  0  0  0  0  0  0
   -4.8963    0.2924  -18.2772 C   0  0  0  0  0  0  0  0  0  0  0  0
   -5.2224   -1.1109  -17.8595 N   0  0  0  0  0  0  0  0  0  0  0  0
   -5.5518   -1.4575  -19.2812 C   0  0  0  0  0  0  0  0  0  0  0  0
   -5.2208   -1.6190  -16.9750 H   0  0  0  0  0  0  0  0  0  0  0  0
   -5.5130   -2.0827  -17.9671 H   0  0  0  0  0  0  0  0  0  0  0  0
  2  1  1  0  0  0
  2  3  1  0  0  0
  3  4  1  0  0  0
  4 19  1  0  0  0
 19 20  2  0  0  0
 20 21  1  0  0  0
 21 22  2  0  0  0
 22 23  1  0  0  0
 23 24  2  0  0  0
 24 25  1  0  0  0
 25 26  2  0  0  0
 26 27  1  0  0  0
 27 28  2  0  0  0
  4  5  1  0  0  0
  5  6  2  0  0  0
  5  7  1  0  0  0
  7  8  1  0  0  0
  8  9  1  0  0  0
  9 29  1  0  0  0
 29 30  1  0  0  0
 30 31  1  0  0  0
 31 32  1  0  0  0
  9 10  1  0  0  0
 10 11  2  0  0  0
 10 12  1  0  0  0
 12 13  2  0  0  0
 13 14  1  0  0  0
 14 15  2  0  0  0
 15 16  1  0  0  0
 15 17  1  0  0  0
 17 18  2  0  0  0
  7  2  1  0  0  0
 32 29  1  0  0  0
 18 12  1  0  0  0
 28 19  1  0  0  0
 18  7  1  0  0  0
 28 23  1  0  0  0
 31 33  1  0  0  0
 31 34  1  0  0  0
M  CHG 1  31   1
M  END
> <minimizedAffinity>
-8.28748

> <CNNscore>
0.2780341208

> <CNNaffinity>
5.8901634216

> <CNN_VS>
1.6376664639

> <CNNaffinity_variance>
0.0639809817

$$$$



 34 39  0  0  0  0  0  0  0  0999 V2000
  -10.5088    1.6898  -23.2233 C   0  0  0  0  0  0  0  0  0  0  0  0
   -9.0699    1.2727  -23.2997 C   0  0  0  0  0  0  0  0  0  0  0  0
   -8.1378    2.4321  -23.1075 C   0  0  0  0  0  0  0  0  0  0  0  0
   -6.7321    1.9171  -23.2003 N   0  0  0  0  0  0  0  0  0  0  0  0
   -6.7954    0.4393  -23.4498 C   0  0  0  0  0  0  0  0  0  0  0  0
   -5.6201   -0.4789  -23.6098 O   0  0  0  0  0  0  0  0  0  0  0  0
   -8.2402    0.0410  -23.5112 C   0  0  0  0  0  0  0  0  0  0  0  0
   -7.2845   -1.0982  -23.7076 C   0  0  0  0  0  0  0  0  0  0  0  0
   -7.8078   -2.4847  -23.9398 N   0  0  0  0  0  0  0  0  0  0  0  0
   -9.2868   -2.7319  -23.9756 C   0  0  0  0  0  0  0  0  0  0  0  0
   -9.8101   -4.1183  -24.2078 O   0  0  0  0  0  0  0  0  0  0  0  0
  -10.2427   -1.5926  -23.7791 C   0  0  0  0  0  0  0  0  0  0  0  0
  -11.7217   -1.8398  -23.8149 C   0  0  0  0  0  0  0  0  0  0  0  0
  -12.6774   -0.7005  -23.6185 C   0  0  0  0  0  0  0  0  0  0  0  0
  -12.1541    0.6859  -23.3863 C   0  0  0  0  0  0  0  0  0  0  0  0
  -13.1099    1.8252  -23.1898 Cl  0  0  0  0  0  0  0  0  0  0  0  0
  -10.6751    0.9331  -23.3505 C   0  0  0  0  0  0  0  0  0  0  0  0
   -9.7194   -0.2061  -23.5470 C   0  0  0  0  0  0  0  0  0  0  0  0
   -5.4824    2.7360  -23.0670 C   0  0  0  0  0  0  0  0  0  0  0  0
   -5.1630    3.7882  -24.0870 C   0  0  0  0  0  0  0  0  0  0  0  0
   -3.9133    4.6071  -23.9537 N   0  0  0  0  0  0  0  0  0  0  0  0
   -2.9832    4.3737  -22.8003 C   0  0  0  0  0  0  0  0  0  0  0  0
   -3.3027    3.3214  -21.7802 C   0  0  0  0  0  0  0  0  0  0  0  0
   -2.3725    3.0880  -20.6268 C   0  0  0  0  0  0  0  0  0  0  0  0
   -2.6921    2.0356  -19.6067 C   0  0  0  0  0  0  0  0  0  0  0  0
   -3.9417    1.2168  -19.7401 C   0  0  0  0  0  0  0  0  0  0  0  0
   -4.8718    1.4502  -20.8935 C   0  0  0  0  0  0  0  0  0  0  0  0
   -4.5524    2.5025  -21.9135 C   0  0  0  0  0  0  0  0  0  0  0  0
   -6.8520   -3.6240  -24.1363 C   0  0  0  0  0  0  0  0  0  0  0  0
   -6.4880   -4.8501  -23.3528 C   0  0  0  0  0  0  0  0  0  0  0  0
   -5.5003   -5.2351  -24.4141 N   0  0  0  0  0  0  0  0  0  0  0  0
   -5.8643   -4.0088  -25.1976 C   0  0  0  0  0  0  0  0  0  0  0  0
   -4.8503   -6.0098  -24.5477 H   0  0  0  0  0  0  0  0  0  0  0  0
   -4.9745   -5.1578  -25.2848 H   0  0  0  0  0  0  0  0  0  0  0  0
  2  1  1  0  0  0
  2  3  1  0  0  0
  3  4  1  0  0  0
  4 19  1  0  0  0
 19 20  2  0  0  0
 20 21  1  0  0  0
 21 22  2  0  0  0
 22 23  1  0  0  0
 23 24  2  0  0  0
 24 25  1  0  0  0
 25 26  2  0  0  0
 26 27  1  0  0  0
 27 28  2  0  0  0
  4  5  1  0  0  0
  5  6  2  0  0  0
  5  7  1  0  0  0
  7  8  1  0  0  0
  8  9  1  0  0  0
  9 29  1  0  0  0
 29 30  1  0  0  0
 30 31  1  0  0  0
 31 32  1  0  0  0
  9 10  1  0  0  0
 10 11  2  0  0  0
 10 12  1  0  0  0
 12 13  2  0  0  0
 13 14  1  0  0  0
 14 15  2  0  0  0
 15 16  1  0  0  0
 15 17  1  0  0  0
 17 18  2  0  0  0
  7  2  1  0  0  0
 32 29  1  0  0  0
 18 12  1  0  0  0
 28 19  1  0  0  0
 18  7  1  0  0  0
 28 23  1  0  0  0
 31 33  1  0  0  0
 31 34  1  0  0  0
M  CHG 1  31   1
M  END
> <minimizedAffinity>
-7.41375

> <CNNscore>
0.2647404075

> <CNNaffinity>
6.0027399063

> <CNN_VS>
1.5891678333

> <CNNaffinity_variance>
0.2315749675

$$$$



 34 39  0  0  0  0  0  0  0  0999 V2000
   -7.3949   -5.1028  -23.2616 C   0  0  0  0  0  0  0  0  0  0  0  0
   -7.1577   -3.6279  -23.1253 C   0  0  0  0  0  0  0  0  0  0  0  0
   -6.6730   -3.2612  -21.7539 C   0  0  0  0  0  0  0  0  0  0  0  0
   -6.4661   -1.7760  -21.7172 N   0  0  0  0  0  0  0  0  0  0  0  0
   -6.8229   -1.2249  -23.0659 C   0  0  0  0  0  0  0  0  0  0  0  0
   -6.7628    0.2176  -23.4729 O   0  0  0  0  0  0  0  0  0  0  0  0
   -7.2503   -2.3694  -23.9362 C   0  0  0  0  0  0  0  0  0  0  0  0
   -7.2923   -1.0348  -24.6194 C   0  0  0  0  0  0  0  0  0  0  0  0
   -7.7346   -0.9378  -26.0494 N   0  0  0  0  0  0  0  0  0  0  0  0
   -8.1350   -2.1755  -26.7962 C   0  0  0  0  0  0  0  0  0  0  0  0
   -8.5773   -2.0786  -28.2262 O   0  0  0  0  0  0  0  0  0  0  0  0
   -8.0930   -3.5103  -26.1130 C   0  0  0  0  0  0  0  0  0  0  0  0
   -8.4934   -4.7480  -26.8597 C   0  0  0  0  0  0  0  0  0  0  0  0
   -8.4514   -6.0827  -26.1765 C   0  0  0  0  0  0  0  0  0  0  0  0
   -8.0090   -6.1796  -24.7465 C   0  0  0  0  0  0  0  0  0  0  0  0
   -7.9671   -7.5144  -24.0633 Cl  0  0  0  0  0  0  0  0  0  0  0  0
   -7.6087   -4.9419  -23.9997 C   0  0  0  0  0  0  0  0  0  0  0  0
   -7.6507   -3.6072  -24.6830 C   0  0  0  0  0  0  0  0  0  0  0  0
   -5.9866   -0.9814  -20.5388 C   0  0  0  0  0  0  0  0  0  0  0  0
   -6.7199   -1.0603  -19.2327 C   0  0  0  0  0  0  0  0  0  0  0  0
   -6.2404   -0.2657  -18.0542 N   0  0  0  0  0  0  0  0  0  0  0  0
   -5.0276    0.6077  -18.1820 C   0  0  0  0  0  0  0  0  0  0  0  0
   -4.2943    0.6865  -19.4882 C   0  0  0  0  0  0  0  0  0  0  0  0
   -3.0815    1.5600  -19.6159 C   0  0  0  0  0  0  0  0  0  0  0  0
   -2.3483    1.6387  -20.9221 C   0  0  0  0  0  0  0  0  0  0  0  0
   -2.8278    0.8441  -22.1004 C   0  0  0  0  0  0  0  0  0  0  0  0
   -4.0406   -0.0292  -21.9727 C   0  0  0  0  0  0  0  0  0  0  0  0
   -4.7738   -0.1081  -20.6666 C   0  0  0  0  0  0  0  0  0  0  0  0
   -7.7766    0.3970  -26.7326 C   0  0  0  0  0  0  0  0  0  0  0  0
   -7.2725    0.9365  -28.0382 C   0  0  0  0  0  0  0  0  0  0  0  0
   -7.8359    2.2846  -27.6988 N   0  0  0  0  0  0  0  0  0  0  0  0
   -8.3400    1.7450  -26.3931 C   0  0  0  0  0  0  0  0  0  0  0  0
   -7.8645    3.1922  -28.1634 H   0  0  0  0  0  0  0  0  0  0  0  0
   -8.3211    2.9911  -27.1457 H   0  0  0  0  0  0  0  0  0  0  0  0
  2  1  1  0  0  0
  2  3  1  0  0  0
  3  4  1  0  0  0
  4 19  1  0  0  0
 19 20  2  0  0  0
 20 21  1  0  0  0
 21 22  2  0  0  0
 22 23  1  0  0  0
 23 24  2  0  0  0
 24 25  1  0  0  0
 25 26  2  0  0  0
 26 27  1  0  0  0
 27 28  2  0  0  0
  4  5  1  0  0  0
  5  6  2  0  0  0
  5  7  1  0  0  0
  7  8  1  0  0  0
  8  9  1  0  0  0
  9 29  1  0  0  0
 29 30  1  0  0  0
 30 31  1  0  0  0
 31 32  1  0  0  0
  9 10  1  0  0  0
 10 11  2  0  0  0
 10 12  1  0  0  0
 12 13  2  0  0  0
 13 14  1  0  0  0
 14 15  2  0  0  0
 15 16  1  0  0  0
 15 17  1  0  0  0
 17 18  2  0  0  0
  7  2  1  0  0  0
 32 29  1  0  0  0
 18 12  1  0  0  0
 28 19  1  0  0  0
 18  7  1  0  0  0
 28 23  1  0  0  0
 31 33  1  0  0  0
 31 34  1  0  0  0
M  CHG 1  31   1
M  END
> <minimizedAffinity>
-7.82714

> <CNNscore>
0.2585070133

> <CNNaffinity>
5.9566416740

> <CNN_VS>
1.5398336649

> <CNNaffinity_variance>
0.2378694713

$$$$



 34 39  0  0  0  0  0  0  0  0999 V2000
   -7.0734   -0.0139  -20.6662 C   0  0  0  0  0  0  0  0  0  0  0  0
   -8.1553   -0.2145  -21.6857 C   0  0  0  0  0  0  0  0  0  0  0  0
   -9.0283    0.9974  -21.8243 C   0  0  0  0  0  0  0  0  0  0  0  0
  -10.0724    0.7005  -22.8596 N   0  0  0  0  0  0  0  0  0  0  0  0
   -9.8446   -0.6948  -23.3608 C   0  0  0  0  0  0  0  0  0  0  0  0
  -10.6588   -1.4006  -24.4043 O   0  0  0  0  0  0  0  0  0  0  0  0
   -8.6598   -1.2603  -22.6353 C   0  0  0  0  0  0  0  0  0  0  0  0
   -9.2746   -2.2027  -23.6272 C   0  0  0  0  0  0  0  0  0  0  0  0
   -8.6959   -3.5734  -23.8178 N   0  0  0  0  0  0  0  0  0  0  0  0
   -7.5023   -4.0017  -23.0165 C   0  0  0  0  0  0  0  0  0  0  0  0
   -6.9236   -5.3723  -23.2072 O   0  0  0  0  0  0  0  0  0  0  0  0
   -6.8875   -3.0592  -22.0246 C   0  0  0  0  0  0  0  0  0  0  0  0
   -5.6939   -3.4875  -21.2234 C   0  0  0  0  0  0  0  0  0  0  0  0
   -5.0791   -2.5451  -20.2315 C   0  0  0  0  0  0  0  0  0  0  0  0
   -5.6578   -1.1744  -20.0409 C   0  0  0  0  0  0  0  0  0  0  0  0
   -5.0430   -0.2320  -19.0490 Cl  0  0  0  0  0  0  0  0  0  0  0  0
   -6.8514   -0.7461  -20.8421 C   0  0  0  0  0  0  0  0  0  0  0  0
   -7.4662   -1.6886  -21.8340 C   0  0  0  0  0  0  0  0  0  0  0  0
  -11.1543    1.6349  -23.3139 C   0  0  0  0  0  0  0  0  0  0  0  0
  -12.5652    1.4323  -22.8469 C   0  0  0  0  0  0  0  0  0  0  0  0
  -13.6471    2.3667  -23.3013 N   0  0  0  0  0  0  0  0  0  0  0  0
  -13.3180    3.5037  -24.2226 C   0  0  0  0  0  0  0  0  0  0  0  0
  -11.9070    3.7063  -24.6896 C   0  0  0  0  0  0  0  0  0  0  0  0
  -11.5779    4.8434  -25.6110 C   0  0  0  0  0  0  0  0  0  0  0  0
  -10.1669    5.0460  -26.0779 C   0  0  0  0  0  0  0  0  0  0  0  0
   -9.0851    4.1116  -25.6236 C   0  0  0  0  0  0  0  0  0  0  0  0
   -9.4142    2.9746  -24.7022 C   0  0  0  0  0  0  0  0  0  0  0  0
  -10.8251    2.7719  -24.2353 C   0  0  0  0  0  0  0  0  0  0  0  0
   -9.3107   -4.5158  -24.8097 C   0  0  0  0  0  0  0  0  0  0  0  0
   -8.8442   -5.7405  -25.5393 C   0  0  0  0  0  0  0  0  0  0  0  0
  -10.1803   -5.8485  -26.2125 N   0  0  0  0  0  0  0  0  0  0  0  0
  -10.6469   -4.6238  -25.4828 C   0  0  0  0  0  0  0  0  0  0  0  0
  -10.5984   -6.4893  -26.8869 H   0  0  0  0  0  0  0  0  0  0  0  0
  -11.1412   -5.5977  -26.4455 H   0  0  0  0  0  0  0  0  0  0  0  0
  2  1  1  0  0  0
  2  3  1  0  0  0
  3  4  1  0  0  0
  4 19  1  0  0  0
 19 20  2  0  0  0
 20 21  1  0  0  0
 21 22  2  0  0  0
 22 23  1  0  0  0
 23 24  2  0  0  0
 24 25  1  0  0  0
 25 26  2  0  0  0
 26 27  1  0  0  0
 27 28  2  0  0  0
  4  5  1  0  0  0
  5  6  2  0  0  0
  5  7  1  0  0  0
  7  8  1  0  0  0
  8  9  1  0  0  0
  9 29  1  0  0  0
 29 30  1  0  0  0
 30 31  1  0  0  0
 31 32  1  0  0  0
  9 10  1  0  0  0
 10 11  2  0  0  0
 10 12  1  0  0  0
 12 13  2  0  0  0
 13 14  1  0  0  0
 14 15  2  0  0  0
 15 16  1  0  0  0
 15 17  1  0  0  0
 17 18  2  0  0  0
  7  2  1  0  0  0
 32 29  1  0  0  0
 18 12  1  0  0  0
 28 19  1  0  0  0
 18  7  1  0  0  0
 28 23  1  0  0  0
 31 33  1  0  0  0
 31 34  1  0  0  0
M  CHG 1  31   1
M  END
> <minimizedAffinity>
-8.27697

> <CNNscore>
0.2435382158

> <CNNaffinity>
6.0933966637

> <CNN_VS>
1.4839749336

> <CNNaffinity_variance>
0.0835296661

$$$$



 34 39  0  0  0  0  0  0  0  0999 V2000
  -11.5662    0.3229  -23.5992 C   0  0  0  0  0  0  0  0  0  0  0  0
  -10.2433   -0.3032  -23.9280 C   0  0  0  0  0  0  0  0  0  0  0  0
  -10.2752   -1.7954  -23.7784 C   0  0  0  0  0  0  0  0  0  0  0  0
   -8.9159   -2.3253  -24.1268 N   0  0  0  0  0  0  0  0  0  0  0  0
   -8.0439   -1.1607  -24.4917 C   0  0  0  0  0  0  0  0  0  0  0  0
   -6.6042   -1.2331  -24.9066 O   0  0  0  0  0  0  0  0  0  0  0  0
   -8.8642    0.0891  -24.3688 C   0  0  0  0  0  0  0  0  0  0  0  0
   -7.4494    0.3285  -24.8058 C   0  0  0  0  0  0  0  0  0  0  0  0
   -6.9742    1.7253  -25.0762 N   0  0  0  0  0  0  0  0  0  0  0  0
   -7.9138    2.8827  -24.9098 C   0  0  0  0  0  0  0  0  0  0  0  0
   -7.4385    4.2794  -25.1803 O   0  0  0  0  0  0  0  0  0  0  0  0
   -9.3287    2.6432  -24.4728 C   0  0  0  0  0  0  0  0  0  0  0  0
  -10.2682    3.8006  -24.3063 C   0  0  0  0  0  0  0  0  0  0  0  0
  -11.6830    3.5611  -23.8693 C   0  0  0  0  0  0  0  0  0  0  0  0
  -12.1582    2.1643  -23.5989 C   0  0  0  0  0  0  0  0  0  0  0  0
  -13.5731    1.9249  -23.1619 Cl  0  0  0  0  0  0  0  0  0  0  0  0
  -11.2187    1.0070  -23.7653 C   0  0  0  0  0  0  0  0  0  0  0  0
   -9.8039    1.2465  -24.2023 C   0  0  0  0  0  0  0  0  0  0  0  0
   -8.5013   -3.7668  -24.1127 C   0  0  0  0  0  0  0  0  0  0  0  0
   -7.8513   -4.3484  -22.8925 C   0  0  0  0  0  0  0  0  0  0  0  0
   -7.4368   -5.7899  -22.8785 N   0  0  0  0  0  0  0  0  0  0  0  0
   -7.6723   -6.6498  -24.0848 C   0  0  0  0  0  0  0  0  0  0  0  0
   -8.3223   -6.0682  -25.3051 C   0  0  0  0  0  0  0  0  0  0  0  0
   -8.5578   -6.9281  -26.5114 C   0  0  0  0  0  0  0  0  0  0  0  0
   -9.2079   -6.3464  -27.7317 C   0  0  0  0  0  0  0  0  0  0  0  0
   -9.6224   -4.9049  -27.7456 C   0  0  0  0  0  0  0  0  0  0  0  0
   -9.3869   -4.0450  -26.5394 C   0  0  0  0  0  0  0  0  0  0  0  0
   -8.7369   -4.6267  -25.3191 C   0  0  0  0  0  0  0  0  0  0  0  0
   -5.5593    1.9647  -25.5132 C   0  0  0  0  0  0  0  0  0  0  0  0
   -4.8919    2.2843  -26.8179 C   0  0  0  0  0  0  0  0  0  0  0  0
   -3.5584    2.3033  -26.1311 N   0  0  0  0  0  0  0  0  0  0  0  0
   -4.2259    1.9837  -24.8264 C   0  0  0  0  0  0  0  0  0  0  0  0
   -2.5963    2.4661  -26.4282 H   0  0  0  0  0  0  0  0  0  0  0  0
   -2.8944    2.2320  -25.3601 H   0  0  0  0  0  0  0  0  0  0  0  0
  2  1  1  0  0  0
  2  3  1  0  0  0
  3  4  1  0  0  0
  4 19  1  0  0  0
 19 20  2  0  0  0
 20 21  1  0  0  0
 21 22  2  0  0  0
 22 23  1  0  0  0
 23 24  2  0  0  0
 24 25  1  0  0  0
 25 26  2  0  0  0
 26 27  1  0  0  0
 27 28  2  0  0  0
  4  5  1  0  0  0
  5  6  2  0  0  0
  5  7  1  0  0  0
  7  8  1  0  0  0
  8  9  1  0  0  0
  9 29  1  0  0  0
 29 30  1  0  0  0
 30 31  1  0  0  0
 31 32  1  0  0  0
  9 10  1  0  0  0
 10 11  2  0  0  0
 10 12  1  0  0  0
 12 13  2  0  0  0
 13 14  1  0  0  0
 14 15  2  0  0  0
 15 16  1  0  0  0
 15 17  1  0  0  0
 17 18  2  0  0  0
  7  2  1  0  0  0
 32 29  1  0  0  0
 18 12  1  0  0  0
 28 19  1  0  0  0
 18  7  1  0  0  0
 28 23  1  0  0  0
 31 33  1  0  0  0
 31 34  1  0  0  0
M  CHG 1  31   1
M  END
> <minimizedAffinity>
-7.24991

> <CNNscore>
0.2134016156

> <CNNaffinity>
5.8519496918

> <CNN_VS>
1.2488155365

> <CNNaffinity_variance>
0.0989350304

$$$$
