


 34 39  0  0  0  0  0  0  0  0999 V2000
    7.3479   -3.3455   23.3139 C   0  0  0  0  0  0  0  0  0  0  0  0
    7.5198   -2.0340   22.6065 C   0  0  0  0  0  0  0  0  0  0  0  0
    6.4080   -1.7698   21.6348 C   0  0  0  0  0  0  0  0  0  0  0  0
    6.6678   -0.4444   20.9823 N   0  0  0  0  0  0  0  0  0  0  0  0
    7.9402    0.1106   21.5508 C   0  0  0  0  0  0  0  0  0  0  0  0
    8.5747    1.4183   21.1804 O   0  0  0  0  0  0  0  0  0  0  0  0
    8.4668   -0.8719   22.5545 C   0  0  0  0  0  0  0  0  0  0  0  0
    9.3185    0.3524   22.3943 C   0  0  0  0  0  0  0  0  0  0  0  0
   10.5719    0.5052   23.2040 N   0  0  0  0  0  0  0  0  0  0  0  0
   10.9736   -0.5662   24.1739 C   0  0  0  0  0  0  0  0  0  0  0  0
   12.2270   -0.4134   24.9836 O   0  0  0  0  0  0  0  0  0  0  0  0
   10.1218   -1.7905   24.3341 C   0  0  0  0  0  0  0  0  0  0  0  0
   10.5235   -2.8619   25.3040 C   0  0  0  0  0  0  0  0  0  0  0  0
    9.6717   -4.0861   25.4642 C   0  0  0  0  0  0  0  0  0  0  0  0
    8.4183   -4.2390   24.6546 C   0  0  0  0  0  0  0  0  0  0  0  0
    7.5665   -5.4633   24.8148 Cl  0  0  0  0  0  0  0  0  0  0  0  0
    8.0166   -3.1676   23.6847 C   0  0  0  0  0  0  0  0  0  0  0  0
    8.8684   -1.9434   23.5245 C   0  0  0  0  0  0  0  0  0  0  0  0
    5.8066    0.2111   19.9438 C   0  0  0  0  0  0  0  0  0  0  0  0
    6.1870    0.1318   18.4951 C   0  0  0  0  0  0  0  0  0  0  0  0
    5.3257    0.7873   17.4565 N   0  0  0  0  0  0  0  0  0  0  0  0
    4.0840    1.5220   17.8668 C   0  0  0  0  0  0  0  0  0  0  0  0
    3.7035    1.6012   19.3156 C   0  0  0  0  0  0  0  0  0  0  0  0
    2.4617    2.3360   19.7258 C   0  0  0  0  0  0  0  0  0  0  0  0
    2.0814    2.4152   21.1746 C   0  0  0  0  0  0  0  0  0  0  0  0
    2.9427    1.7597   22.2131 C   0  0  0  0  0  0  0  0  0  0  0  0
    4.1844    1.0250   21.8028 C   0  0  0  0  0  0  0  0  0  0  0  0
    4.5648    0.9458   20.3541 C   0  0  0  0  0  0  0  0  0  0  0  0
   11.4237    1.7295   23.0437 C   0  0  0  0  0  0  0  0  0  0  0  0
   12.8383    1.9891   22.6180 C   0  0  0  0  0  0  0  0  0  0  0  0
   12.6282    3.4609   22.8171 N   0  0  0  0  0  0  0  0  0  0  0  0
   11.2135    3.2013   23.2429 C   0  0  0  0  0  0  0  0  0  0  0  0
   13.2074    4.2935   22.7082 H   0  0  0  0  0  0  0  0  0  0  0  0
   12.1280    4.3180   23.0531 H   0  0  0  0  0  0  0  0  0  0  0  0
  2  1  1  0  0  0
  2  3  1  0  0  0
  3  4  1  0  0  0
  4 19  1  0  0  0
 19 20  2  0  0  0
 20 21  1  0  0  0
 21 22  2  0  0  0
 22 23  1  0  0  0
 23 24  2  0  0  0
 24 25  1  0  0  0
 25 26  2  0  0  0
 26 27  1  0  0  0
 27 28  2  0  0  0
  4  5  1  0  0  0
  5  6  2  0  0  0
  5  7  1  0  0  0
  7  8  1  0  0  0
  8  9  1  0  0  0
  9 29  1  0  0  0
 29 30  1  0  0  0
 30 31  1  0  0  0
 31 32  1  0  0  0
  9 10  1  0  0  0
 10 11  2  0  0  0
 10 12  1  0  0  0
 12 13  2  0  0  0
 13 14  1  0  0  0
 14 15  2  0  0  0
 15 16  1  0  0  0
 15 17  1  0  0  0
 17 18  2  0  0  0
  7  2  1  0  0  0
 32 29  1  0  0  0
 18 12  1  0  0  0
 28 19  1  0  0  0
 18  7  1  0  0  0
 28 23  1  0  0  0
 31 33  1  0  0  0
 31 34  1  0  0  0
M  CHG 1  31   1
M  END
> <minimizedAffinity>
-9.19246

> <CNNscore>
0.5526778102

> <CNNaffinity>
6.6131715775

> <CNN_VS>
3.6549532413

> <CNNaffinity_variance>
0.0258603655

$$$$



 34 39  0  0  0  0  0  0  0  0999 V2000
   11.0283   -2.6056   24.8651 C   0  0  0  0  0  0  0  0  0  0  0  0
    9.5836   -2.6705   24.4669 C   0  0  0  0  0  0  0  0  0  0  0  0
    8.9038   -3.8899   25.0155 C   0  0  0  0  0  0  0  0  0  0  0  0
    7.4730   -3.8647   24.5658 N   0  0  0  0  0  0  0  0  0  0  0  0
    7.2686   -2.6298   23.7392 C   0  0  0  0  0  0  0  0  0  0  0  0
    5.9850   -2.2072   23.0881 O   0  0  0  0  0  0  0  0  0  0  0  0
    8.5730   -1.8917   23.6781 C   0  0  0  0  0  0  0  0  0  0  0  0
    7.4589   -1.2248   22.9272 C   0  0  0  0  0  0  0  0  0  0  0  0
    7.7088    0.0655   22.2042 N   0  0  0  0  0  0  0  0  0  0  0  0
    9.0728    0.6889   22.2322 C   0  0  0  0  0  0  0  0  0  0  0  0
    9.3227    1.9791   21.5092 O   0  0  0  0  0  0  0  0  0  0  0  0
   10.1870    0.0219   22.9831 C   0  0  0  0  0  0  0  0  0  0  0  0
   11.5510    0.6453   23.0111 C   0  0  0  0  0  0  0  0  0  0  0  0
   12.6651   -0.0216   23.7621 C   0  0  0  0  0  0  0  0  0  0  0  0
   12.4152   -1.3119   24.4850 C   0  0  0  0  0  0  0  0  0  0  0  0
   13.5294   -1.9788   25.2360 Cl  0  0  0  0  0  0  0  0  0  0  0  0
   11.0512   -1.9353   24.4571 C   0  0  0  0  0  0  0  0  0  0  0  0
    9.9371   -1.2684   23.7061 C   0  0  0  0  0  0  0  0  0  0  0  0
    6.4298   -4.8938   24.8863 C   0  0  0  0  0  0  0  0  0  0  0  0
    6.3334   -6.1451   24.0649 C   0  0  0  0  0  0  0  0  0  0  0  0
    5.2902   -7.1742   24.3855 N   0  0  0  0  0  0  0  0  0  0  0  0
    4.3434   -6.9519   25.5275 C   0  0  0  0  0  0  0  0  0  0  0  0
    4.4398   -5.7005   26.3489 C   0  0  0  0  0  0  0  0  0  0  0  0
    3.4930   -5.4782   27.4910 C   0  0  0  0  0  0  0  0  0  0  0  0
    3.5895   -4.2268   28.3124 C   0  0  0  0  0  0  0  0  0  0  0  0
    4.6327   -3.1978   27.9918 C   0  0  0  0  0  0  0  0  0  0  0  0
    5.5795   -3.4201   26.8498 C   0  0  0  0  0  0  0  0  0  0  0  0
    5.4830   -4.6714   26.0284 C   0  0  0  0  0  0  0  0  0  0  0  0
    6.5946    0.7324   21.4532 C   0  0  0  0  0  0  0  0  0  0  0  0
    5.5415    1.7440   21.7956 C   0  0  0  0  0  0  0  0  0  0  0  0
    5.0190    1.6755   20.3911 N   0  0  0  0  0  0  0  0  0  0  0  0
    6.0722    0.6638   20.0488 C   0  0  0  0  0  0  0  0  0  0  0  0
    4.2614    2.1290   19.8805 H   0  0  0  0  0  0  0  0  0  0  0  0
    4.9649    1.3691   19.4197 H   0  0  0  0  0  0  0  0  0  0  0  0
  2  1  1  0  0  0
  2  3  1  0  0  0
  3  4  1  0  0  0
  4 19  1  0  0  0
 19 20  2  0  0  0
 20 21  1  0  0  0
 21 22  2  0  0  0
 22 23  1  0  0  0
 23 24  2  0  0  0
 24 25  1  0  0  0
 25 26  2  0  0  0
 26 27  1  0  0  0
 27 28  2  0  0  0
  4  5  1  0  0  0
  5  6  2  0  0  0
  5  7  1  0  0  0
  7  8  1  0  0  0
  8  9  1  0  0  0
  9 29  1  0  0  0
 29 30  1  0  0  0
 30 31  1  0  0  0
 31 32  1  0  0  0
  9 10  1  0  0  0
 10 11  2  0  0  0
 10 12  1  0  0  0
 12 13  2  0  0  0
 13 14  1  0  0  0
 14 15  2  0  0  0
 15 16  1  0  0  0
 15 17  1  0  0  0
 17 18  2  0  0  0
  7  2  1  0  0  0
 32 29  1  0  0  0
 18 12  1  0  0  0
 28 19  1  0  0  0
 18  7  1  0  0  0
 28 23  1  0  0  0
 31 33  1  0  0  0
 31 34  1  0  0  0
M  CHG 1  31   1
M  END
> <minimizedAffinity>
-8.08502

> <CNNscore>
0.4412565827

> <CNNaffinity>
6.5307679176

> <CNN_VS>
2.8817443848

> <CNNaffinity_variance>
0.2744569480

$$$$



 34 39  0  0  0  0  0  0  0  0999 V2000
   10.6718   -2.9720   26.1818 C   0  0  0  0  0  0  0  0  0  0  0  0
    9.3345   -2.3987   25.8170 C   0  0  0  0  0  0  0  0  0  0  0  0
    8.2058   -3.1637   26.4423 C   0  0  0  0  0  0  0  0  0  0  0  0
    6.9190   -2.5182   26.0211 N   0  0  0  0  0  0  0  0  0  0  0  0
    7.2524   -1.3543   25.1355 C   0  0  0  0  0  0  0  0  0  0  0  0
    6.2660   -0.4270   24.4896 O   0  0  0  0  0  0  0  0  0  0  0  0
    8.7452   -1.2805   25.0094 C   0  0  0  0  0  0  0  0  0  0  0  0
    8.0152   -0.2144   24.2476 C   0  0  0  0  0  0  0  0  0  0  0  0
    8.7838    0.7997   23.4533 N   0  0  0  0  0  0  0  0  0  0  0  0
   10.2825    0.7477   23.4210 C   0  0  0  0  0  0  0  0  0  0  0  0
   11.0512    1.7618   22.6267 O   0  0  0  0  0  0  0  0  0  0  0  0
   11.0127   -0.3184   24.1828 C   0  0  0  0  0  0  0  0  0  0  0  0
   12.5114   -0.3704   24.1505 C   0  0  0  0  0  0  0  0  0  0  0  0
   13.2415   -1.4364   24.9123 C   0  0  0  0  0  0  0  0  0  0  0  0
   12.4728   -2.4505   25.7066 C   0  0  0  0  0  0  0  0  0  0  0  0
   13.2030   -3.5166   26.4685 Cl  0  0  0  0  0  0  0  0  0  0  0  0
   10.9741   -2.3985   25.7390 C   0  0  0  0  0  0  0  0  0  0  0  0
   10.2440   -1.3325   24.9771 C   0  0  0  0  0  0  0  0  0  0  0  0
    5.5407   -2.9592   26.4160 C   0  0  0  0  0  0  0  0  0  0  0  0
    4.8684   -4.0749   25.6724 C   0  0  0  0  0  0  0  0  0  0  0  0
    3.4901   -4.5158   26.0674 N   0  0  0  0  0  0  0  0  0  0  0  0
    2.7843   -3.8410   27.2060 C   0  0  0  0  0  0  0  0  0  0  0  0
    3.4568   -2.7253   27.9497 C   0  0  0  0  0  0  0  0  0  0  0  0
    2.7509   -2.0505   29.0884 C   0  0  0  0  0  0  0  0  0  0  0  0
    3.4234   -0.9348   29.8320 C   0  0  0  0  0  0  0  0  0  0  0  0
    4.8016   -0.4939   29.4370 C   0  0  0  0  0  0  0  0  0  0  0  0
    5.5074   -1.1687   28.2983 C   0  0  0  0  0  0  0  0  0  0  0  0
    4.8350   -2.2844   27.5547 C   0  0  0  0  0  0  0  0  0  0  0  0
    8.0537    1.8658   22.6914 C   0  0  0  0  0  0  0  0  0  0  0  0
    7.8449    3.3407   22.8671 C   0  0  0  0  0  0  0  0  0  0  0  0
    7.0211    3.3733   21.6139 N   0  0  0  0  0  0  0  0  0  0  0  0
    7.2299    1.8984   21.4383 C   0  0  0  0  0  0  0  0  0  0  0  0
    6.5246    4.0983   21.0958 H   0  0  0  0  0  0  0  0  0  0  0  0
    6.5579    3.0100   20.7809 H   0  0  0  0  0  0  0  0  0  0  0  0
  2  1  1  0  0  0
  2  3  1  0  0  0
  3  4  1  0  0  0
  4 19  1  0  0  0
 19 20  2  0  0  0
 20 21  1  0  0  0
 21 22  2  0  0  0
 22 23  1  0  0  0
 23 24  2  0  0  0
 24 25  1  0  0  0
 25 26  2  0  0  0
 26 27  1  0  0  0
 27 28  2  0  0  0
  4  5  1  0  0  0
  5  6  2  0  0  0
  5  7  1  0  0  0
  7  8  1  0  0  0
  8  9  1  0  0  0
  9 29  1  0  0  0
 29 30  1  0  0  0
 30 31  1  0  0  0
 31 32  1  0  0  0
  9 10  1  0  0  0
 10 11  2  0  0  0
 10 12  1  0  0  0
 12 13  2  0  0  0
 13 14  1  0  0  0
 14 15  2  0  0  0
 15 16  1  0  0  0
 15 17  1  0  0  0
 17 18  2  0  0  0
  7  2  1  0  0  0
 32 29  1  0  0  0
 18 12  1  0  0  0
 28 19  1  0  0  0
 18  7  1  0  0  0
 28 23  1  0  0  0
 31 33  1  0  0  0
 31 34  1  0  0  0
M  CHG 1  31   1
M  END
> <minimizedAffinity>
-7.80706

> <CNNscore>
0.4316277504

> <CNNaffinity>
6.4430375099

> <CNN_VS>
2.7809937000

> <CNNaffinity_variance>
0.3409784436

$$$$



 34 39  0  0  0  0  0  0  0  0999 V2000
    6.2487   -5.0420   22.5089 C   0  0  0  0  0  0  0  0  0  0  0  0
    6.7915   -4.0889   23.5322 C   0  0  0  0  0  0  0  0  0  0  0  0
    8.0497   -3.4192   23.0647 C   0  0  0  0  0  0  0  0  0  0  0  0
    8.5118   -2.4920   24.1494 N   0  0  0  0  0  0  0  0  0  0  0  0
    7.5392   -2.5887   25.2873 C   0  0  0  0  0  0  0  0  0  0  0  0
    7.6164   -1.8313   26.5798 O   0  0  0  0  0  0  0  0  0  0  0  0
    6.4761   -3.5756   24.9059 C   0  0  0  0  0  0  0  0  0  0  0  0
    6.2899   -2.9741   26.2673 C   0  0  0  0  0  0  0  0  0  0  0  0
    5.1172   -3.3770   27.1113 N   0  0  0  0  0  0  0  0  0  0  0  0
    4.1306   -4.3815   26.5939 C   0  0  0  0  0  0  0  0  0  0  0  0
    2.9579   -4.7844   27.4380 O   0  0  0  0  0  0  0  0  0  0  0  0
    4.3167   -4.9831   25.2325 C   0  0  0  0  0  0  0  0  0  0  0  0
    3.3302   -5.9875   24.7151 C   0  0  0  0  0  0  0  0  0  0  0  0
    3.5163   -6.5890   23.3537 C   0  0  0  0  0  0  0  0  0  0  0  0
    4.6890   -6.1861   22.5096 C   0  0  0  0  0  0  0  0  0  0  0  0
    4.8752   -6.7877   21.1482 Cl  0  0  0  0  0  0  0  0  0  0  0  0
    5.6756   -5.1817   23.0270 C   0  0  0  0  0  0  0  0  0  0  0  0
    5.4895   -4.5801   24.3884 C   0  0  0  0  0  0  0  0  0  0  0  0
    9.7322   -1.6210   24.1042 C   0  0  0  0  0  0  0  0  0  0  0  0
    9.7157   -0.3474   23.3121 C   0  0  0  0  0  0  0  0  0  0  0  0
   10.9361    0.5236   23.2669 N   0  0  0  0  0  0  0  0  0  0  0  0
   12.1729    0.1209   24.0139 C   0  0  0  0  0  0  0  0  0  0  0  0
   12.1894   -1.1528   24.8060 C   0  0  0  0  0  0  0  0  0  0  0  0
   13.4264   -1.5555   25.5530 C   0  0  0  0  0  0  0  0  0  0  0  0
   13.4428   -2.8292   26.3451 C   0  0  0  0  0  0  0  0  0  0  0  0
   12.2224   -3.7001   26.3903 C   0  0  0  0  0  0  0  0  0  0  0  0
   10.9855   -3.2974   25.6433 C   0  0  0  0  0  0  0  0  0  0  0  0
   10.9690   -2.0238   24.8512 C   0  0  0  0  0  0  0  0  0  0  0  0
    4.9311   -2.7755   28.4728 C   0  0  0  0  0  0  0  0  0  0  0  0
    4.4404   -3.2801   29.7973 C   0  0  0  0  0  0  0  0  0  0  0  0
    4.6679   -1.9247   30.3981 N   0  0  0  0  0  0  0  0  0  0  0  0
    5.1586   -1.4200   29.0735 C   0  0  0  0  0  0  0  0  0  0  0  0
    4.5413   -1.5156   31.3239 H   0  0  0  0  0  0  0  0  0  0  0  0
    4.9385   -0.9418   30.4309 H   0  0  0  0  0  0  0  0  0  0  0  0
  2  1  1  0  0  0
  2  3  1  0  0  0
  3  4  1  0  0  0
  4 19  1  0  0  0
 19 20  2  0  0  0
 20 21  1  0  0  0
 21 22  2  0  0  0
 22 23  1  0  0  0
 23 24  2  0  0  0
 24 25  1  0  0  0
 25 26  2  0  0  0
 26 27  1  0  0  0
 27 28  2  0  0  0
  4  5  1  0  0  0
  5  6  2  0  0  0
  5  7  1  0  0  0
  7  8  1  0  0  0
  8  9  1  0  0  0
  9 29  1  0  0  0
 29 30  1  0  0  0
 30 31  1  0  0  0
 31 32  1  0  0  0
  9 10  1  0  0  0
 10 11  2  0  0  0
 10 12  1  0  0  0
 12 13  2  0  0  0
 13 14  1  0  0  0
 14 15  2  0  0  0
 15 16  1  0  0  0
 15 17  1  0  0  0
 17 18  2  0  0  0
  7  2  1  0  0  0
 32 29  1  0  0  0
 18 12  1  0  0  0
 28 19  1  0  0  0
 18  7  1  0  0  0
 28 23  1  0  0  0
 31 33  1  0  0  0
 31 34  1  0  0  0
M  CHG 1  31   1
M  END
> <minimizedAffinity>
-7.46604

> <CNNscore>
0.4155633152

> <CNNaffinity>
6.3132481575

> <CNN_VS>
2.6235542297

> <CNNaffinity_variance>
0.1774273813

$$$$



 34 39  0  0  0  0  0  0  0  0999 V2000
   10.6595    0.1011   22.4429 C   0  0  0  0  0  0  0  0  0  0  0  0
    9.2860   -0.4187   22.1373 C   0  0  0  0  0  0  0  0  0  0  0  0
    8.5701    0.4397   21.1369 C   0  0  0  0  0  0  0  0  0  0  0  0
    7.2151   -0.1580   20.8987 N   0  0  0  0  0  0  0  0  0  0  0  0
    7.0936   -1.3858   21.7518 C   0  0  0  0  0  0  0  0  0  0  0  0
    5.9015   -2.2931   21.8263 O   0  0  0  0  0  0  0  0  0  0  0  0
    8.3735   -1.5469   22.5173 C   0  0  0  0  0  0  0  0  0  0  0  0
    7.3563   -2.6129   22.7981 C   0  0  0  0  0  0  0  0  0  0  0  0
    7.6687   -3.7097   23.7725 N   0  0  0  0  0  0  0  0  0  0  0  0
    8.9984   -3.7405   24.4661 C   0  0  0  0  0  0  0  0  0  0  0  0
    9.3109   -4.8373   25.4405 O   0  0  0  0  0  0  0  0  0  0  0  0
   10.0157   -2.6745   24.1852 C   0  0  0  0  0  0  0  0  0  0  0  0
   11.3453   -2.7052   24.8787 C   0  0  0  0  0  0  0  0  0  0  0  0
   12.3625   -1.6392   24.5979 C   0  0  0  0  0  0  0  0  0  0  0  0
   12.0501   -0.5425   23.6235 C   0  0  0  0  0  0  0  0  0  0  0  0
   13.0673    0.5236   23.3426 Cl  0  0  0  0  0  0  0  0  0  0  0  0
   10.7204   -0.5117   22.9299 C   0  0  0  0  0  0  0  0  0  0  0  0
    9.7032   -1.5777   23.2108 C   0  0  0  0  0  0  0  0  0  0  0  0
    6.1659    0.3780   19.9703 C   0  0  0  0  0  0  0  0  0  0  0  0
    6.0980   -0.1099   18.5536 C   0  0  0  0  0  0  0  0  0  0  0  0
    5.0487    0.4260   17.6253 N   0  0  0  0  0  0  0  0  0  0  0  0
    4.0674    1.4499   18.1138 C   0  0  0  0  0  0  0  0  0  0  0  0
    4.1353    1.9378   19.5306 C   0  0  0  0  0  0  0  0  0  0  0  0
    3.1539    2.9618   20.0191 C   0  0  0  0  0  0  0  0  0  0  0  0
    3.2219    3.4496   21.4359 C   0  0  0  0  0  0  0  0  0  0  0  0
    4.2712    2.9136   22.3641 C   0  0  0  0  0  0  0  0  0  0  0  0
    5.2525    1.8897   21.8756 C   0  0  0  0  0  0  0  0  0  0  0  0
    5.1846    1.4019   20.4589 C   0  0  0  0  0  0  0  0  0  0  0  0
    6.6515   -4.7757   24.0534 C   0  0  0  0  0  0  0  0  0  0  0  0
    5.1870   -4.7853   24.3773 C   0  0  0  0  0  0  0  0  0  0  0  0
    5.2129   -6.2833   24.4506 N   0  0  0  0  0  0  0  0  0  0  0  0
    6.6775   -6.2737   24.1266 C   0  0  0  0  0  0  0  0  0  0  0  0
    4.5212   -7.0082   24.6415 H   0  0  0  0  0  0  0  0  0  0  0  0
    5.6104   -7.2219   24.4123 H   0  0  0  0  0  0  0  0  0  0  0  0
  2  1  1  0  0  0
  2  3  1  0  0  0
  3  4  1  0  0  0
  4 19  1  0  0  0
 19 20  2  0  0  0
 20 21  1  0  0  0
 21 22  2  0  0  0
 22 23  1  0  0  0
 23 24  2  0  0  0
 24 25  1  0  0  0
 25 26  2  0  0  0
 26 27  1  0  0  0
 27 28  2  0  0  0
  4  5  1  0  0  0
  5  6  2  0  0  0
  5  7  1  0  0  0
  7  8  1  0  0  0
  8  9  1  0  0  0
  9 29  1  0  0  0
 29 30  1  0  0  0
 30 31  1  0  0  0
 31 32  1  0  0  0
  9 10  1  0  0  0
 10 11  2  0  0  0
 10 12  1  0  0  0
 12 13  2  0  0  0
 13 14  1  0  0  0
 14 15  2  0  0  0
 15 16  1  0  0  0
 15 17  1  0  0  0
 17 18  2  0  0  0
  7  2  1  0  0  0
 32 29  1  0  0  0
 18 12  1  0  0  0
 28 19  1  0  0  0
 18  7  1  0  0  0
 28 23  1  0  0  0
 31 33  1  0  0  0
 31 34  1  0  0  0
M  CHG 1  31   1
M  END
> <minimizedAffinity>
-8.80324

> <CNNscore>
0.4014772475

> <CNNaffinity>
6.4902329445

> <CNN_VS>
2.6056809425

> <CNNaffinity_variance>
0.0238095783

$$$$



 34 39  0  0  0  0  0  0  0  0999 V2000
   10.6134   -0.2068   22.7015 C   0  0  0  0  0  0  0  0  0  0  0  0
    9.1529   -0.4823   22.4983 C   0  0  0  0  0  0  0  0  0  0  0  0
    8.6380    0.1258   21.2274 C   0  0  0  0  0  0  0  0  0  0  0  0
    7.1787   -0.2024   21.1146 N   0  0  0  0  0  0  0  0  0  0  0  0
    6.7918   -1.0133   22.3157 C   0  0  0  0  0  0  0  0  0  0  0  0
    5.4247   -1.5559   22.6099 O   0  0  0  0  0  0  0  0  0  0  0  0
    8.0119   -1.1863   23.1709 C   0  0  0  0  0  0  0  0  0  0  0  0
    6.7818   -1.8435   23.7230 C   0  0  0  0  0  0  0  0  0  0  0  0
    6.8490   -2.5894   25.0226 N   0  0  0  0  0  0  0  0  0  0  0  0
    8.1464   -2.6782   25.7702 C   0  0  0  0  0  0  0  0  0  0  0  0
    8.2137   -3.4242   27.0698 O   0  0  0  0  0  0  0  0  0  0  0  0
    9.3766   -2.0210   25.2181 C   0  0  0  0  0  0  0  0  0  0  0  0
   10.6740   -2.1097   25.9657 C   0  0  0  0  0  0  0  0  0  0  0  0
   11.9041   -1.4525   25.4136 C   0  0  0  0  0  0  0  0  0  0  0  0
   11.8369   -0.7065   24.1140 C   0  0  0  0  0  0  0  0  0  0  0  0
   13.0671   -0.0493   23.5619 Cl  0  0  0  0  0  0  0  0  0  0  0  0
   10.5395   -0.6178   23.3664 C   0  0  0  0  0  0  0  0  0  0  0  0
    9.3094   -1.2750   23.9185 C   0  0  0  0  0  0  0  0  0  0  0  0
    6.2665    0.2082   19.9968 C   0  0  0  0  0  0  0  0  0  0  0  0
    6.4065   -0.4242   18.6439 C   0  0  0  0  0  0  0  0  0  0  0  0
    5.4943   -0.0136   17.5262 N   0  0  0  0  0  0  0  0  0  0  0  0
    4.4422    1.0293   17.7615 C   0  0  0  0  0  0  0  0  0  0  0  0
    4.3023    1.6617   19.1145 C   0  0  0  0  0  0  0  0  0  0  0  0
    3.2501    2.7047   19.3497 C   0  0  0  0  0  0  0  0  0  0  0  0
    3.1103    3.3370   20.7027 C   0  0  0  0  0  0  0  0  0  0  0  0
    4.0224    2.9263   21.8204 C   0  0  0  0  0  0  0  0  0  0  0  0
    5.0745    1.8834   21.5851 C   0  0  0  0  0  0  0  0  0  0  0  0
    5.2144    1.2511   20.2322 C   0  0  0  0  0  0  0  0  0  0  0  0
    5.6188   -3.2467   25.5747 C   0  0  0  0  0  0  0  0  0  0  0  0
    4.4198   -2.7770   26.3438 C   0  0  0  0  0  0  0  0  0  0  0  0
    3.8791   -4.1762   26.3553 N   0  0  0  0  0  0  0  0  0  0  0  0
    5.0782   -4.6458   25.5862 C   0  0  0  0  0  0  0  0  0  0  0  0
    3.0426   -4.6231   26.7307 H   0  0  0  0  0  0  0  0  0  0  0  0
    3.8515   -5.1774   26.1624 H   0  0  0  0  0  0  0  0  0  0  0  0
  2  1  1  0  0  0
  2  3  1  0  0  0
  3  4  1  0  0  0
  4 19  1  0  0  0
 19 20  2  0  0  0
 20 21  1  0  0  0
 21 22  2  0  0  0
 22 23  1  0  0  0
 23 24  2  0  0  0
 24 25  1  0  0  0
 25 26  2  0  0  0
 26 27  1  0  0  0
 27 28  2  0  0  0
  4  5  1  0  0  0
  5  6  2  0  0  0
  5  7  1  0  0  0
  7  8  1  0  0  0
  8  9  1  0  0  0
  9 29  1  0  0  0
 29 30  1  0  0  0
 30 31  1  0  0  0
 31 32  1  0  0  0
  9 10  1  0  0  0
 10 11  2  0  0  0
 10 12  1  0  0  0
 12 13  2  0  0  0
 13 14  1  0  0  0
 14 15  2  0  0  0
 15 16  1  0  0  0
 15 17  1  0  0  0
 17 18  2  0  0  0
  7  2  1  0  0  0
 32 29  1  0  0  0
 18 12  1  0  0  0
 28 19  1  0  0  0
 18  7  1  0  0  0
 28 23  1  0  0  0
 31 33  1  0  0  0
 31 34  1  0  0  0
M  CHG 1  31   1
M  END
> <minimizedAffinity>
-8.82462

> <CNNscore>
0.3833544552

> <CNNaffinity>
6.3091177940

> <CNN_VS>
2.4186284542

> <CNNaffinity_variance>
0.0782732293

$$$$



 34 39  0  0  0  0  0  0  0  0999 V2000
    7.0607    0.1346   20.1326 C   0  0  0  0  0  0  0  0  0  0  0  0
    7.4658    0.1218   21.5768 C   0  0  0  0  0  0  0  0  0  0  0  0
    8.8722   -0.3659   21.7616 C   0  0  0  0  0  0  0  0  0  0  0  0
    9.1819   -0.3425   23.2291 N   0  0  0  0  0  0  0  0  0  0  0  0
    7.9668    0.1597   23.9512 C   0  0  0  0  0  0  0  0  0  0  0  0
    7.8355    0.3428   25.4342 O   0  0  0  0  0  0  0  0  0  0  0  0
    6.9062    0.4466   22.9301 C   0  0  0  0  0  0  0  0  0  0  0  0
    6.4853    0.7271   24.3422 C   0  0  0  0  0  0  0  0  0  0  0  0
    5.1071    1.2475   24.6247 N   0  0  0  0  0  0  0  0  0  0  0  0
    4.1498    1.4874   23.4952 C   0  0  0  0  0  0  0  0  0  0  0  0
    2.7717    2.0078   23.7777 O   0  0  0  0  0  0  0  0  0  0  0  0
    4.5707    1.2069   22.0829 C   0  0  0  0  0  0  0  0  0  0  0  0
    3.6134    1.4468   20.9534 C   0  0  0  0  0  0  0  0  0  0  0  0
    4.0343    1.1663   19.5412 C   0  0  0  0  0  0  0  0  0  0  0  0
    5.4125    0.6459   19.2587 C   0  0  0  0  0  0  0  0  0  0  0  0
    5.8334    0.3654   17.8465 Cl  0  0  0  0  0  0  0  0  0  0  0  0
    6.3698    0.4060   20.3883 C   0  0  0  0  0  0  0  0  0  0  0  0
    5.9489    0.6865   21.8004 C   0  0  0  0  0  0  0  0  0  0  0  0
   10.4789   -0.7497   23.8631 C   0  0  0  0  0  0  0  0  0  0  0  0
   11.7055    0.0912   23.6682 C   0  0  0  0  0  0  0  0  0  0  0  0
   13.0025   -0.3160   24.3022 N   0  0  0  0  0  0  0  0  0  0  0  0
   13.0727   -1.5642   25.1312 C   0  0  0  0  0  0  0  0  0  0  0  0
   11.8460   -2.4051   25.3262 C   0  0  0  0  0  0  0  0  0  0  0  0
   11.9162   -3.6532   26.1552 C   0  0  0  0  0  0  0  0  0  0  0  0
   10.6894   -4.4941   26.3501 C   0  0  0  0  0  0  0  0  0  0  0  0
    9.3925   -4.0868   25.7161 C   0  0  0  0  0  0  0  0  0  0  0  0
    9.3223   -2.8387   24.8871 C   0  0  0  0  0  0  0  0  0  0  0  0
   10.5490   -1.9978   24.6921 C   0  0  0  0  0  0  0  0  0  0  0  0
    4.6862    1.5280   26.0370 C   0  0  0  0  0  0  0  0  0  0  0  0
    4.3454    0.6846   27.2295 C   0  0  0  0  0  0  0  0  0  0  0  0
    4.0911    1.9248   28.0340 N   0  0  0  0  0  0  0  0  0  0  0  0
    4.4319    2.7683   26.8414 C   0  0  0  0  0  0  0  0  0  0  0  0
    3.8049    2.1156   28.9943 H   0  0  0  0  0  0  0  0  0  0  0  0
    4.0199    2.9235   28.2291 H   0  0  0  0  0  0  0  0  0  0  0  0
  2  1  1  0  0  0
  2  3  1  0  0  0
  3  4  1  0  0  0
  4 19  1  0  0  0
 19 20  2  0  0  0
 20 21  1  0  0  0
 21 22  2  0  0  0
 22 23  1  0  0  0
 23 24  2  0  0  0
 24 25  1  0  0  0
 25 26  2  0  0  0
 26 27  1  0  0  0
 27 28  2  0  0  0
  4  5  1  0  0  0
  5  6  2  0  0  0
  5  7  1  0  0  0
  7  8  1  0  0  0
  8  9  1  0  0  0
  9 29  1  0  0  0
 29 30  1  0  0  0
 30 31  1  0  0  0
 31 32  1  0  0  0
  9 10  1  0  0  0
 10 11  2  0  0  0
 10 12  1  0  0  0
 12 13  2  0  0  0
 13 14  1  0  0  0
 14 15  2  0  0  0
 15 16  1  0  0  0
 15 17  1  0  0  0
 17 18  2  0  0  0
  7  2  1  0  0  0
 32 29  1  0  0  0
 18 12  1  0  0  0
 28 19  1  0  0  0
 18  7  1  0  0  0
 28 23  1  0  0  0
 31 33  1  0  0  0
 31 34  1  0  0  0
M  CHG 1  31   1
M  END
> <minimizedAffinity>
-8.24531

> <CNNscore>
0.3489236534

> <CNNaffinity>
6.1518449783

> <CNN_VS>
2.1465241909

> <CNNaffinity_variance>
0.0502473004

$$$$



 34 39  0  0  0  0  0  0  0  0999 V2000
    9.3276   -3.0828   26.6311 C   0  0  0  0  0  0  0  0  0  0  0  0
    8.6945   -1.8870   25.9835 C   0  0  0  0  0  0  0  0  0  0  0  0
    7.2227   -1.8102   26.2628 C   0  0  0  0  0  0  0  0  0  0  0  0
    6.6840   -0.5895   25.5775 N   0  0  0  0  0  0  0  0  0  0  0  0
    7.8229    0.0881   24.8748 C   0  0  0  0  0  0  0  0  0  0  0  0
    7.7347    1.3468   24.0635 O   0  0  0  0  0  0  0  0  0  0  0  0
    9.0654   -0.7138   25.1257 C   0  0  0  0  0  0  0  0  0  0  0  0
    9.2852    0.5013   24.2741 C   0  0  0  0  0  0  0  0  0  0  0  0
   10.6577    0.8171   23.7579 N   0  0  0  0  0  0  0  0  0  0  0  0
   11.8104   -0.0821   24.0932 C   0  0  0  0  0  0  0  0  0  0  0  0
   13.1829    0.2337   23.5769 O   0  0  0  0  0  0  0  0  0  0  0  0
   11.5907   -1.2973   24.9448 C   0  0  0  0  0  0  0  0  0  0  0  0
   12.7434   -2.1965   25.2801 C   0  0  0  0  0  0  0  0  0  0  0  0
   12.5237   -3.4116   26.1317 C   0  0  0  0  0  0  0  0  0  0  0  0
   11.1512   -3.7275   26.6479 C   0  0  0  0  0  0  0  0  0  0  0  0
   10.9315   -4.9426   27.4995 Cl  0  0  0  0  0  0  0  0  0  0  0  0
    9.9985   -2.8282   26.3126 C   0  0  0  0  0  0  0  0  0  0  0  0
   10.2182   -1.6131   25.4610 C   0  0  0  0  0  0  0  0  0  0  0  0
    5.2570   -0.1274   25.5923 C   0  0  0  0  0  0  0  0  0  0  0  0
    4.4848   -0.0364   24.3097 C   0  0  0  0  0  0  0  0  0  0  0  0
    3.0578    0.4256   24.3246 N   0  0  0  0  0  0  0  0  0  0  0  0
    2.4031    0.7967   25.6221 C   0  0  0  0  0  0  0  0  0  0  0  0
    3.1754    0.7057   26.9048 C   0  0  0  0  0  0  0  0  0  0  0  0
    2.5207    1.0768   28.2024 C   0  0  0  0  0  0  0  0  0  0  0  0
    3.2931    0.9858   29.4851 C   0  0  0  0  0  0  0  0  0  0  0  0
    4.7200    0.5238   29.4701 C   0  0  0  0  0  0  0  0  0  0  0  0
    5.3747    0.1527   28.1726 C   0  0  0  0  0  0  0  0  0  0  0  0
    4.6024    0.2437   26.8900 C   0  0  0  0  0  0  0  0  0  0  0  0
   10.8774    2.0323   22.9063 C   0  0  0  0  0  0  0  0  0  0  0  0
   10.0491    2.7991   21.9185 C   0  0  0  0  0  0  0  0  0  0  0  0
   11.1882    3.7508   21.7020 N   0  0  0  0  0  0  0  0  0  0  0  0
   12.0165    2.9839   22.6898 C   0  0  0  0  0  0  0  0  0  0  0  0
   11.3376    4.5771   21.1229 H   0  0  0  0  0  0  0  0  0  0  0  0
   12.1194    4.1491   21.8231 H   0  0  0  0  0  0  0  0  0  0  0  0
  2  1  1  0  0  0
  2  3  1  0  0  0
  3  4  1  0  0  0
  4 19  1  0  0  0
 19 20  2  0  0  0
 20 21  1  0  0  0
 21 22  2  0  0  0
 22 23  1  0  0  0
 23 24  2  0  0  0
 24 25  1  0  0  0
 25 26  2  0  0  0
 26 27  1  0  0  0
 27 28  2  0  0  0
  4  5  1  0  0  0
  5  6  2  0  0  0
  5  7  1  0  0  0
  7  8  1  0  0  0
  8  9  1  0  0  0
  9 29  1  0  0  0
 29 30  1  0  0  0
 30 31  1  0  0  0
 31 32  1  0  0  0
  9 10  1  0  0  0
 10 11  2  0  0  0
 10 12  1  0  0  0
 12 13  2  0  0  0
 13 14  1  0  0  0
 14 15  2  0  0  0
 15 16  1  0  0  0
 15 17  1  0  0  0
 17 18  2  0  0  0
  7  2  1  0  0  0
 32 29  1  0  0  0
 18 12  1  0  0  0
 28 19  1  0  0  0
 18  7  1  0  0  0
 28 23  1  0  0  0
 31 33  1  0  0  0
 31 34  1  0  0  0
M  CHG 1  31   1
M  END
> <minimizedAffinity>
-7.41026

> <CNNscore>
0.3181895912

> <CNNaffinity>
6.2114477158

> <CNN_VS>
1.9764180183

> <CNNaffinity_variance>
0.2379736900

$$$$



 34 39  0  0  0  0  0  0  0  0999 V2000
   10.6564   -1.9059   25.5054 C   0  0  0  0  0  0  0  0  0  0  0  0
    9.1801   -1.9598   25.2450 C   0  0  0  0  0  0  0  0  0  0  0  0
    8.4990   -2.9991   26.0852 C   0  0  0  0  0  0  0  0  0  0  0  0
    7.0359   -2.9763   25.7550 N   0  0  0  0  0  0  0  0  0  0  0  0
    6.8129   -1.9229   24.7106 C   0  0  0  0  0  0  0  0  0  0  0  0
    5.4959   -1.5613   24.0903 O   0  0  0  0  0  0  0  0  0  0  0  0
    8.1380   -1.2947   24.3954 C   0  0  0  0  0  0  0  0  0  0  0  0
    6.9915   -0.7249   23.6140 C   0  0  0  0  0  0  0  0  0  0  0  0
    7.2323    0.3753   22.6232 N   0  0  0  0  0  0  0  0  0  0  0  0
    8.6197    0.9056   22.4138 C   0  0  0  0  0  0  0  0  0  0  0  0
    8.8605    2.0058   21.4230 O   0  0  0  0  0  0  0  0  0  0  0  0
    9.7664    0.3358   23.1952 C   0  0  0  0  0  0  0  0  0  0  0  0
   11.1537    0.8661   22.9859 C   0  0  0  0  0  0  0  0  0  0  0  0
   12.3003    0.2963   23.7673 C   0  0  0  0  0  0  0  0  0  0  0  0
   12.0595   -0.8039   24.7581 C   0  0  0  0  0  0  0  0  0  0  0  0
   13.2061   -1.3737   25.5395 Cl  0  0  0  0  0  0  0  0  0  0  0  0
   10.6721   -1.3342   24.9675 C   0  0  0  0  0  0  0  0  0  0  0  0
    9.5255   -0.7644   24.1860 C   0  0  0  0  0  0  0  0  0  0  0  0
    5.9812   -3.8529   26.3624 C   0  0  0  0  0  0  0  0  0  0  0  0
    5.4091   -4.9938   25.5745 C   0  0  0  0  0  0  0  0  0  0  0  0
    4.3543   -5.8704   26.1819 N   0  0  0  0  0  0  0  0  0  0  0  0
    3.8716   -5.6060   27.5773 C   0  0  0  0  0  0  0  0  0  0  0  0
    4.4437   -4.4651   28.3652 C   0  0  0  0  0  0  0  0  0  0  0  0
    3.9610   -4.2007   29.7607 C   0  0  0  0  0  0  0  0  0  0  0  0
    4.5332   -3.0597   30.5486 C   0  0  0  0  0  0  0  0  0  0  0  0
    5.5879   -2.1831   29.9411 C   0  0  0  0  0  0  0  0  0  0  0  0
    6.0706   -2.4475   28.5457 C   0  0  0  0  0  0  0  0  0  0  0  0
    5.4985   -3.5884   27.7578 C   0  0  0  0  0  0  0  0  0  0  0  0
    6.0857    0.9451   21.8417 C   0  0  0  0  0  0  0  0  0  0  0  0
    4.9471    0.3670   21.0548 C   0  0  0  0  0  0  0  0  0  0  0  0
    4.4641    1.7510   20.7367 N   0  0  0  0  0  0  0  0  0  0  0  0
    5.6028    2.3292   21.5236 C   0  0  0  0  0  0  0  0  0  0  0  0
    3.6844    2.1385   20.2053 H   0  0  0  0  0  0  0  0  0  0  0  0
    4.4570    2.7710   20.7416 H   0  0  0  0  0  0  0  0  0  0  0  0
  2  1  1  0  0  0
  2  3  1  0  0  0
  3  4  1  0  0  0
  4 19  1  0  0  0
 19 20  2  0  0  0
 20 21  1  0  0  0
 21 22  2  0  0  0
 22 23  1  0  0  0
 23 24  2  0  0  0
 24 25  1  0  0  0
 25 26  2  0  0  0
 26 27  1  0  0  0
 27 28  2  0  0  0
  4  5  1  0  0  0
  5  6  2  0  0  0
  5  7  1  0  0  0
  7  8  1  0  0  0
  8  9  1  0  0  0
  9 29  1  0  0  0
 29 30  1  0  0  0
 30 31  1  0  0  0
 31 32  1  0  0  0
  9 10  1  0  0  0
 10 11  2  0  0  0
 10 12  1  0  0  0
 12 13  2  0  0  0
 13 14  1  0  0  0
 14 15  2  0  0  0
 15 16  1  0  0  0
 15 17  1  0  0  0
 17 18  2  0  0  0
  7  2  1  0  0  0
 32 29  1  0  0  0
 18 12  1  0  0  0
 28 19  1  0  0  0
 18  7  1  0  0  0
 28 23  1  0  0  0
 31 33  1  0  0  0
 31 34  1  0  0  0
M  CHG 1  31   1
M  END
> <minimizedAffinity>
-8.03506

> <CNNscore>
0.3062859774

> <CNNaffinity>
6.1489253044

> <CNN_VS>
1.8833296299

> <CNNaffinity_variance>
0.1798767447

$$$$
