


 35 39  0  0  0  0  0  0  0  0999 V2000
   10.5008    4.3942   22.7690 N   0  0  0  0  0  0  0  0  0  0  0  0
    9.1740    3.8274   23.1792 C   0  0  0  0  0  0  0  0  0  0  0  0
    9.0444    2.3637   23.4802 C   0  0  0  0  0  0  0  0  0  0  0  0
    8.7632    0.9279   23.8110 C   0  0  0  0  0  0  0  0  0  0  0  0
    9.3363   -0.1415   23.8773 O   0  0  0  0  0  0  0  0  0  0  0  0
    7.3108    0.8100   24.1669 N   0  0  0  0  0  0  0  0  0  0  0  0
    6.6944    2.1730   24.0562 C   0  0  0  0  0  0  0  0  0  0  0  0
    7.7658    3.1332   23.6318 C   0  0  0  0  0  0  0  0  0  0  0  0
    7.5895    4.6046   23.3997 C   0  0  0  0  0  0  0  0  0  0  0  0
   10.2417    1.4666   23.3710 C   0  0  0  0  0  0  0  0  0  0  0  0
   10.1121    0.0029   23.6720 C   0  0  0  0  0  0  0  0  0  0  0  0
   11.3094   -0.8941   23.5628 C   0  0  0  0  0  0  0  0  0  0  0  0
   11.1799   -2.3579   23.8638 Cl  0  0  0  0  0  0  0  0  0  0  0  0
   12.6362   -0.3273   23.1526 C   0  0  0  0  0  0  0  0  0  0  0  0
   12.7658    1.1364   22.8516 C   0  0  0  0  0  0  0  0  0  0  0  0
   11.5685    2.0334   22.9608 C   0  0  0  0  0  0  0  0  0  0  0  0
   11.6981    3.4972   22.6598 C   0  0  0  0  0  0  0  0  0  0  0  0
   13.0249    4.0640   22.2495 O   0  0  0  0  0  0  0  0  0  0  0  0
    6.5998   -0.4497   24.5639 C   0  0  0  0  0  0  0  0  0  0  0  0
    6.4120   -1.5519   23.5640 C   0  0  0  0  0  0  0  0  0  0  0  0
    5.7009   -2.8116   23.9609 N   0  0  0  0  0  0  0  0  0  0  0  0
    5.1777   -2.9691   25.3578 C   0  0  0  0  0  0  0  0  0  0  0  0
    5.3655   -1.8668   26.3578 C   0  0  0  0  0  0  0  0  0  0  0  0
    4.8422   -2.0243   27.7548 C   0  0  0  0  0  0  0  0  0  0  0  0
    5.0300   -0.9221   28.7546 C   0  0  0  0  0  0  0  0  0  0  0  0
    5.7411    0.3376   28.3577 C   0  0  0  0  0  0  0  0  0  0  0  0
    6.2643    0.4951   26.9607 C   0  0  0  0  0  0  0  0  0  0  0  0
    6.0765   -0.6072   25.9608 C   0  0  0  0  0  0  0  0  0  0  0  0
   10.6303    5.8580   22.4680 C   0  0  0  0  0  0  0  0  0  0  0  0
   11.0883    6.9142   24.7970 N   0  0  0  0  0  0  0  0  0  0  0  0
   10.2993    6.8726   23.5220 C   0  0  0  0  0  0  0  0  0  0  0  0
    9.1791    7.8455   23.3010 O   0  0  0  0  0  0  0  0  0  0  0  0
   11.8234    6.2757   24.9421 H   0  0  0  0  0  0  0  0  0  0  0  0
   11.0916    7.6546   27.2873 C   0  0  0  0  0  0  0  0  0  0  0  0
   10.7572    7.9288   25.8511 C   0  0  0  0  0  0  0  0  0  0  0  0
 34 35  1  0  0  0
 35 30  1  0  0  0
 30 31  1  0  0  0
 31 32  2  0  0  0
 31 29  1  0  0  0
 29  1  1  0  0  0
  1  2  1  0  0  0
  3  2  1  0  0  0
  3  4  1  0  0  0
  4  5  2  0  0  0
  4  6  1  0  0  0
  6 19  1  0  0  0
 19 20  2  0  0  0
 20 21  1  0  0  0
 21 22  2  0  0  0
 22 23  1  0  0  0
 23 24  2  0  0  0
 24 25  1  0  0  0
 25 26  2  0  0  0
 26 27  1  0  0  0
 27 28  2  0  0  0
  6  7  1  0  0  0
  7  8  1  0  0  0
  8  9  1  0  0  0
  3 10  1  0  0  0
 10 11  2  0  0  0
 11 12  1  0  0  0
 12 13  1  0  0  0
 12 14  2  0  0  0
 14 15  1  0  0  0
 15 16  2  0  0  0
 16 17  1  0  0  0
 17 18  2  0  0  0
 17  1  1  0  0  0
  8  3  1  0  0  0
 16 10  1  0  0  0
 28 19  1  0  0  0
 28 23  1  0  0  0
 30 33  1  0  0  0
M  END
> <minimizedAffinity>
-7.53228

> <CNNscore>
0.4976758659

> <CNNaffinity>
6.6469078064

> <CNN_VS>
3.3080055714

> <CNNaffinity_variance>
0.4552852511

$$$$



 35 39  0  0  0  0  0  0  0  0999 V2000
   10.4589    0.6331   23.7421 N   0  0  0  0  0  0  0  0  0  0  0  0
    9.0720    0.2679   24.1816 C   0  0  0  0  0  0  0  0  0  0  0  0
    8.8547   -0.9254   25.0640 C   0  0  0  0  0  0  0  0  0  0  0  0
    8.4843   -2.0842   25.9414 C   0  0  0  0  0  0  0  0  0  0  0  0
    9.0069   -3.0067   26.5349 O   0  0  0  0  0  0  0  0  0  0  0  0
    6.9954   -2.0709   26.1230 N   0  0  0  0  0  0  0  0  0  0  0  0
    6.4456   -0.9037   25.3578 C   0  0  0  0  0  0  0  0  0  0  0  0
    7.5947   -0.1958   24.7034 C   0  0  0  0  0  0  0  0  0  0  0  0
    7.5004    1.0270   23.8398 C   0  0  0  0  0  0  0  0  0  0  0  0
   10.0243   -1.7536   25.5070 C   0  0  0  0  0  0  0  0  0  0  0  0
    9.8070   -2.9469   26.3894 C   0  0  0  0  0  0  0  0  0  0  0  0
   10.9766   -3.7751   26.8323 C   0  0  0  0  0  0  0  0  0  0  0  0
   10.7593   -4.9685   27.7148 Cl  0  0  0  0  0  0  0  0  0  0  0  0
   12.3635   -3.4100   26.3927 C   0  0  0  0  0  0  0  0  0  0  0  0
   12.5808   -2.2166   25.5103 C   0  0  0  0  0  0  0  0  0  0  0  0
   11.4112   -1.3885   25.0674 C   0  0  0  0  0  0  0  0  0  0  0  0
   11.6285   -0.1951   24.1850 C   0  0  0  0  0  0  0  0  0  0  0  0
   13.0154    0.1701   23.7454 O   0  0  0  0  0  0  0  0  0  0  0  0
    6.1965   -3.0523   26.9284 C   0  0  0  0  0  0  0  0  0  0  0  0
    6.1108   -2.9058   28.4188 C   0  0  0  0  0  0  0  0  0  0  0  0
    5.3119   -3.8873   29.2242 N   0  0  0  0  0  0  0  0  0  0  0  0
    4.5989   -5.0152   28.5391 C   0  0  0  0  0  0  0  0  0  0  0  0
    4.6847   -5.1617   27.0488 C   0  0  0  0  0  0  0  0  0  0  0  0
    3.9716   -6.2897   26.3637 C   0  0  0  0  0  0  0  0  0  0  0  0
    4.0574   -6.4361   24.8734 C   0  0  0  0  0  0  0  0  0  0  0  0
    4.8562   -5.4547   24.0680 C   0  0  0  0  0  0  0  0  0  0  0  0
    5.5693   -4.3268   24.7530 C   0  0  0  0  0  0  0  0  0  0  0  0
    5.4835   -4.1803   26.2434 C   0  0  0  0  0  0  0  0  0  0  0  0
   10.6762    1.8265   22.8596 C   0  0  0  0  0  0  0  0  0  0  0  0
    9.2328    3.9083   23.4360 N   0  0  0  0  0  0  0  0  0  0  0  0
    9.5316    2.7421   22.5412 C   0  0  0  0  0  0  0  0  0  0  0  0
    8.6857    2.4915   21.3280 O   0  0  0  0  0  0  0  0  0  0  0  0
    9.7879    4.0728   24.2322 H   0  0  0  0  0  0  0  0  0  0  0  0
    7.3827    5.5547   24.2214 C   0  0  0  0  0  0  0  0  0  0  0  0
    8.0881    4.8240   23.1176 C   0  0  0  0  0  0  0  0  0  0  0  0
 34 35  1  0  0  0
 35 30  1  0  0  0
 30 31  1  0  0  0
 31 32  2  0  0  0
 31 29  1  0  0  0
 29  1  1  0  0  0
  1  2  1  0  0  0
  3  2  1  0  0  0
  3  4  1  0  0  0
  4  5  2  0  0  0
  4  6  1  0  0  0
  6 19  1  0  0  0
 19 20  2  0  0  0
 20 21  1  0  0  0
 21 22  2  0  0  0
 22 23  1  0  0  0
 23 24  2  0  0  0
 24 25  1  0  0  0
 25 26  2  0  0  0
 26 27  1  0  0  0
 27 28  2  0  0  0
  6  7  1  0  0  0
  7  8  1  0  0  0
  8  9  1  0  0  0
  3 10  1  0  0  0
 10 11  2  0  0  0
 11 12  1  0  0  0
 12 13  1  0  0  0
 12 14  2  0  0  0
 14 15  1  0  0  0
 15 16  2  0  0  0
 16 17  1  0  0  0
 17 18  2  0  0  0
 17  1  1  0  0  0
  8  3  1  0  0  0
 16 10  1  0  0  0
 28 19  1  0  0  0
 28 23  1  0  0  0
 30 33  1  0  0  0
M  END
> <minimizedAffinity>
-7.91361

> <CNNscore>
0.3834878802

> <CNNaffinity>
6.4574670792

> <CNN_VS>
2.4763603210

> <CNNaffinity_variance>
0.2383767813

$$$$



 35 39  0  0  0  0  0  0  0  0999 V2000
   10.8807    1.7349   22.8814 N   0  0  0  0  0  0  0  0  0  0  0  0
    9.4863    1.4670   23.3647 C   0  0  0  0  0  0  0  0  0  0  0  0
    9.2139    0.2904   24.2543 C   0  0  0  0  0  0  0  0  0  0  0  0
    8.7912   -0.8411   25.1437 C   0  0  0  0  0  0  0  0  0  0  0  0
    9.2664   -1.7989   25.7209 O   0  0  0  0  0  0  0  0  0  0  0  0
    7.3134   -0.7239   25.3722 N   0  0  0  0  0  0  0  0  0  0  0  0
    6.8227    0.4800   24.6241 C   0  0  0  0  0  0  0  0  0  0  0  0
    7.9973    1.1069   23.9332 C   0  0  0  0  0  0  0  0  0  0  0  0
    7.9616    2.3347   23.0723 C   0  0  0  0  0  0  0  0  0  0  0  0
   10.3361   -0.6184   24.6605 C   0  0  0  0  0  0  0  0  0  0  0  0
   10.0638   -1.7950   25.5501 C   0  0  0  0  0  0  0  0  0  0  0  0
   11.1859   -2.7037   25.9563 C   0  0  0  0  0  0  0  0  0  0  0  0
   10.9136   -3.8804   26.8459 Cl  0  0  0  0  0  0  0  0  0  0  0  0
   12.5804   -2.4358   25.4729 C   0  0  0  0  0  0  0  0  0  0  0  0
   12.8527   -1.2591   24.5834 C   0  0  0  0  0  0  0  0  0  0  0  0
   11.7306   -0.3505   24.1772 C   0  0  0  0  0  0  0  0  0  0  0  0
   12.0029    0.8262   23.2875 C   0  0  0  0  0  0  0  0  0  0  0  0
   13.3974    1.0941   22.8042 O   0  0  0  0  0  0  0  0  0  0  0  0
    6.4736   -1.6484   26.2030 C   0  0  0  0  0  0  0  0  0  0  0  0
    6.2409   -3.0598   25.7515 C   0  0  0  0  0  0  0  0  0  0  0  0
    5.4012   -3.9842   26.5823 N   0  0  0  0  0  0  0  0  0  0  0  0
    4.7942   -3.4973   27.8646 C   0  0  0  0  0  0  0  0  0  0  0  0
    5.0269   -2.0859   28.3162 C   0  0  0  0  0  0  0  0  0  0  0  0
    4.4199   -1.5990   29.5986 C   0  0  0  0  0  0  0  0  0  0  0  0
    4.6527   -0.1876   30.0501 C   0  0  0  0  0  0  0  0  0  0  0  0
    5.4924    0.7369   29.2193 C   0  0  0  0  0  0  0  0  0  0  0  0
    6.0994    0.2499   27.9369 C   0  0  0  0  0  0  0  0  0  0  0  0
    5.8666   -1.1615   27.4854 C   0  0  0  0  0  0  0  0  0  0  0  0
   11.1530    2.9116   21.9917 C   0  0  0  0  0  0  0  0  0  0  0  0
   10.8996    5.4971   21.9675 N   0  0  0  0  0  0  0  0  0  0  0  0
   11.4554    4.2522   22.5929 C   0  0  0  0  0  0  0  0  0  0  0  0
   12.3135    4.3478   23.8195 O   0  0  0  0  0  0  0  0  0  0  0  0
   10.3364    5.4344   21.1624 H   0  0  0  0  0  0  0  0  0  0  0  0
   12.1637    7.7655   21.8873 C   0  0  0  0  0  0  0  0  0  0  0  0
   11.2020    6.8377   22.5686 C   0  0  0  0  0  0  0  0  0  0  0  0
 34 35  1  0  0  0
 35 30  1  0  0  0
 30 31  1  0  0  0
 31 32  2  0  0  0
 31 29  1  0  0  0
 29  1  1  0  0  0
  1  2  1  0  0  0
  3  2  1  0  0  0
  3  4  1  0  0  0
  4  5  2  0  0  0
  4  6  1  0  0  0
  6 19  1  0  0  0
 19 20  2  0  0  0
 20 21  1  0  0  0
 21 22  2  0  0  0
 22 23  1  0  0  0
 23 24  2  0  0  0
 24 25  1  0  0  0
 25 26  2  0  0  0
 26 27  1  0  0  0
 27 28  2  0  0  0
  6  7  1  0  0  0
  7  8  1  0  0  0
  8  9  1  0  0  0
  3 10  1  0  0  0
 10 11  2  0  0  0
 11 12  1  0  0  0
 12 13  1  0  0  0
 12 14  2  0  0  0
 14 15  1  0  0  0
 15 16  2  0  0  0
 16 17  1  0  0  0
 17 18  2  0  0  0
 17  1  1  0  0  0
  8  3  1  0  0  0
 16 10  1  0  0  0
 28 19  1  0  0  0
 28 23  1  0  0  0
 30 33  1  0  0  0
M  END
> <minimizedAffinity>
-7.92897

> <CNNscore>
0.3752843142

> <CNNaffinity>
6.5347328186

> <CNN_VS>
2.4523828030

> <CNNaffinity_variance>
0.1411696523

$$$$



 35 39  0  0  0  0  0  0  0  0999 V2000
    9.9764    0.7297   23.1658 N   0  0  0  0  0  0  0  0  0  0  0  0
    8.6222    0.1188   23.3726 C   0  0  0  0  0  0  0  0  0  0  0  0
    8.4623   -1.0581   24.2887 C   0  0  0  0  0  0  0  0  0  0  0  0
    8.1494   -2.2313   25.1695 C   0  0  0  0  0  0  0  0  0  0  0  0
    8.7085   -3.0099   25.9162 O   0  0  0  0  0  0  0  0  0  0  0  0
    6.6769   -2.5014   25.0761 N   0  0  0  0  0  0  0  0  0  0  0  0
    6.0797   -1.4952   24.1376 C   0  0  0  0  0  0  0  0  0  0  0  0
    7.1831   -0.6032   23.6510 C   0  0  0  0  0  0  0  0  0  0  0  0
    7.0335    0.5426   22.6945 C   0  0  0  0  0  0  0  0  0  0  0  0
    9.6567   -1.6241   24.9981 C   0  0  0  0  0  0  0  0  0  0  0  0
    9.4968   -2.8010   25.9143 C   0  0  0  0  0  0  0  0  0  0  0  0
   10.6911   -3.3669   26.6236 C   0  0  0  0  0  0  0  0  0  0  0  0
   10.5313   -4.5438   27.5398 Cl  0  0  0  0  0  0  0  0  0  0  0  0
   12.0453   -2.7559   26.4169 C   0  0  0  0  0  0  0  0  0  0  0  0
   12.2052   -1.5790   25.5008 C   0  0  0  0  0  0  0  0  0  0  0  0
   11.0109   -1.0131   24.7914 C   0  0  0  0  0  0  0  0  0  0  0  0
   11.1708    0.1638   23.8752 C   0  0  0  0  0  0  0  0  0  0  0  0
   12.5250    0.7748   23.6684 O   0  0  0  0  0  0  0  0  0  0  0  0
    5.9324   -3.5872   25.7951 C   0  0  0  0  0  0  0  0  0  0  0  0
    5.5829   -4.8579   25.0788 C   0  0  0  0  0  0  0  0  0  0  0  0
    4.8384   -5.9437   25.7978 N   0  0  0  0  0  0  0  0  0  0  0  0
    4.4434   -5.7586   27.2329 C   0  0  0  0  0  0  0  0  0  0  0  0
    4.7929   -4.4879   27.9492 C   0  0  0  0  0  0  0  0  0  0  0  0
    4.3979   -4.3029   29.3844 C   0  0  0  0  0  0  0  0  0  0  0  0
    4.7475   -3.0321   30.1006 C   0  0  0  0  0  0  0  0  0  0  0  0
    5.4920   -1.9463   29.3817 C   0  0  0  0  0  0  0  0  0  0  0  0
    5.8870   -2.1314   27.9465 C   0  0  0  0  0  0  0  0  0  0  0  0
    5.5374   -3.4021   27.2302 C   0  0  0  0  0  0  0  0  0  0  0  0
   10.1363    1.9067   22.2496 C   0  0  0  0  0  0  0  0  0  0  0  0
   10.8328    4.4010   22.4577 N   0  0  0  0  0  0  0  0  0  0  0  0
    9.8667    3.2929   22.7554 C   0  0  0  0  0  0  0  0  0  0  0  0
    8.6309    3.5710   23.5589 O   0  0  0  0  0  0  0  0  0  0  0  0
   11.6439    4.2185   21.9304 H   0  0  0  0  0  0  0  0  0  0  0  0
   11.1987    6.9677   22.2909 C   0  0  0  0  0  0  0  0  0  0  0  0
   10.5632    5.7872   22.9635 C   0  0  0  0  0  0  0  0  0  0  0  0
 34 35  1  0  0  0
 35 30  1  0  0  0
 30 31  1  0  0  0
 31 32  2  0  0  0
 31 29  1  0  0  0
 29  1  1  0  0  0
  1  2  1  0  0  0
  3  2  1  0  0  0
  3  4  1  0  0  0
  4  5  2  0  0  0
  4  6  1  0  0  0
  6 19  1  0  0  0
 19 20  2  0  0  0
 20 21  1  0  0  0
 21 22  2  0  0  0
 22 23  1  0  0  0
 23 24  2  0  0  0
 24 25  1  0  0  0
 25 26  2  0  0  0
 26 27  1  0  0  0
 27 28  2  0  0  0
  6  7  1  0  0  0
  7  8  1  0  0  0
  8  9  1  0  0  0
  3 10  1  0  0  0
 10 11  2  0  0  0
 11 12  1  0  0  0
 12 13  1  0  0  0
 12 14  2  0  0  0
 14 15  1  0  0  0
 15 16  2  0  0  0
 16 17  1  0  0  0
 17 18  2  0  0  0
 17  1  1  0  0  0
  8  3  1  0  0  0
 16 10  1  0  0  0
 28 19  1  0  0  0
 28 23  1  0  0  0
 30 33  1  0  0  0
M  END
> <minimizedAffinity>
-7.66767

> <CNNscore>
0.3639841378

> <CNNaffinity>
6.4577307701

> <CNN_VS>
2.3505115509

> <CNNaffinity_variance>
0.1559201926

$$$$



 35 39  0  0  0  0  0  0  0  0999 V2000
    3.7633   -5.1949   26.1266 N   0  0  0  0  0  0  0  0  0  0  0  0
    5.0454   -5.3038   25.3557 C   0  0  0  0  0  0  0  0  0  0  0  0
    5.9589   -4.1190   25.2482 C   0  0  0  0  0  0  0  0  0  0  0  0
    6.9670   -3.0252   25.0548 C   0  0  0  0  0  0  0  0  0  0  0  0
    7.1488   -1.8627   25.3577 O   0  0  0  0  0  0  0  0  0  0  0  0
    8.0892   -3.5710   24.2224 N   0  0  0  0  0  0  0  0  0  0  0  0
    7.7746   -5.0020   23.9013 C   0  0  0  0  0  0  0  0  0  0  0  0
    6.4581   -5.3407   24.5354 C   0  0  0  0  0  0  0  0  0  0  0  0
    5.7627   -6.6681   24.4683 C   0  0  0  0  0  0  0  0  0  0  0  0
    5.5903   -2.8251   25.9117 C   0  0  0  0  0  0  0  0  0  0  0  0
    6.5038   -1.6402   25.8043 C   0  0  0  0  0  0  0  0  0  0  0  0
    6.1351   -0.3465   26.4677 C   0  0  0  0  0  0  0  0  0  0  0  0
    7.0486    0.8385   26.3603 Cl  0  0  0  0  0  0  0  0  0  0  0  0
    4.8530   -0.2376   27.2387 C   0  0  0  0  0  0  0  0  0  0  0  0
    3.9395   -1.4225   27.3461 C   0  0  0  0  0  0  0  0  0  0  0  0
    4.3082   -2.7162   26.6826 C   0  0  0  0  0  0  0  0  0  0  0  0
    3.3947   -3.9012   26.7901 C   0  0  0  0  0  0  0  0  0  0  0  0
    2.1126   -3.7923   27.5610 O   0  0  0  0  0  0  0  0  0  0  0  0
    9.3113   -2.8179   23.7874 C   0  0  0  0  0  0  0  0  0  0  0  0
    9.2939   -2.0344   22.5083 C   0  0  0  0  0  0  0  0  0  0  0  0
   10.5160   -1.2813   22.0734 N   0  0  0  0  0  0  0  0  0  0  0  0
   11.7556   -1.3117   22.9174 C   0  0  0  0  0  0  0  0  0  0  0  0
   11.7730   -2.0951   24.1965 C   0  0  0  0  0  0  0  0  0  0  0  0
   13.0127   -2.1254   25.0406 C   0  0  0  0  0  0  0  0  0  0  0  0
   13.0301   -2.9089   26.3196 C   0  0  0  0  0  0  0  0  0  0  0  0
   11.8079   -3.6620   26.7546 C   0  0  0  0  0  0  0  0  0  0  0  0
   10.5684   -3.6316   25.9105 C   0  0  0  0  0  0  0  0  0  0  0  0
   10.5509   -2.8482   24.6315 C   0  0  0  0  0  0  0  0  0  0  0  0
    2.8498   -6.3799   26.2340 C   0  0  0  0  0  0  0  0  0  0  0  0
    0.5781   -6.0763   25.0105 N   0  0  0  0  0  0  0  0  0  0  0  0
    1.9289   -6.7221   25.1006 C   0  0  0  0  0  0  0  0  0  0  0  0
    2.3589   -7.7103   24.0570 O   0  0  0  0  0  0  0  0  0  0  0  0
    0.2959   -5.4278   25.6954 H   0  0  0  0  0  0  0  0  0  0  0  0
   -0.5242   -5.4558   22.7412 C   0  0  0  0  0  0  0  0  0  0  0  0
   -0.3428   -6.4185   23.8771 C   0  0  0  0  0  0  0  0  0  0  0  0
 34 35  1  0  0  0
 35 30  1  0  0  0
 30 31  1  0  0  0
 31 32  2  0  0  0
 31 29  1  0  0  0
 29  1  1  0  0  0
  1  2  1  0  0  0
  3  2  1  0  0  0
  3  4  1  0  0  0
  4  5  2  0  0  0
  4  6  1  0  0  0
  6 19  1  0  0  0
 19 20  2  0  0  0
 20 21  1  0  0  0
 21 22  2  0  0  0
 22 23  1  0  0  0
 23 24  2  0  0  0
 24 25  1  0  0  0
 25 26  2  0  0  0
 26 27  1  0  0  0
 27 28  2  0  0  0
  6  7  1  0  0  0
  7  8  1  0  0  0
  8  9  1  0  0  0
  3 10  1  0  0  0
 10 11  2  0  0  0
 11 12  1  0  0  0
 12 13  1  0  0  0
 12 14  2  0  0  0
 14 15  1  0  0  0
 15 16  2  0  0  0
 16 17  1  0  0  0
 17 18  2  0  0  0
 17  1  1  0  0  0
  8  3  1  0  0  0
 16 10  1  0  0  0
 28 19  1  0  0  0
 28 23  1  0  0  0
 30 33  1  0  0  0
M  END
> <minimizedAffinity>
-7.09326

> <CNNscore>
0.3138991594

> <CNNaffinity>
6.3063116074

> <CNN_VS>
1.9795459509

> <CNNaffinity_variance>
0.0625986829

$$$$



 35 39  0  0  0  0  0  0  0  0999 V2000
    8.5836    4.6658   23.3824 N   0  0  0  0  0  0  0  0  0  0  0  0
    7.7952    3.4387   23.7324 C   0  0  0  0  0  0  0  0  0  0  0  0
    8.4472    2.0888   23.6828 C   0  0  0  0  0  0  0  0  0  0  0  0
    8.9612    0.6796   23.6787 C   0  0  0  0  0  0  0  0  0  0  0  0
    9.9820    0.0618   23.4493 O   0  0  0  0  0  0  0  0  0  0  0  0
    7.8380   -0.2248   24.0918 N   0  0  0  0  0  0  0  0  0  0  0  0
    6.6298    0.6255   24.3512 C   0  0  0  0  0  0  0  0  0  0  0  0
    7.0064    2.0553   24.0984 C   0  0  0  0  0  0  0  0  0  0  0  0
    6.1009    3.2432   24.2370 C   0  0  0  0  0  0  0  0  0  0  0  0
    9.8878    1.9659   23.2831 C   0  0  0  0  0  0  0  0  0  0  0  0
   10.5399    0.6160   23.2335 C   0  0  0  0  0  0  0  0  0  0  0  0
   11.9804    0.4932   22.8338 C   0  0  0  0  0  0  0  0  0  0  0  0
   12.6326   -0.8567   22.7841 Cl  0  0  0  0  0  0  0  0  0  0  0  0
   12.7689    1.7204   22.4837 C   0  0  0  0  0  0  0  0  0  0  0  0
   12.1168    3.0703   22.5334 C   0  0  0  0  0  0  0  0  0  0  0  0
   10.6763    3.1930   22.9330 C   0  0  0  0  0  0  0  0  0  0  0  0
   10.0241    4.5430   22.9827 C   0  0  0  0  0  0  0  0  0  0  0  0
   10.8126    5.7701   22.6326 O   0  0  0  0  0  0  0  0  0  0  0  0
    7.9104   -1.7173   24.2225 C   0  0  0  0  0  0  0  0  0  0  0  0
    6.8707   -2.5787   23.5689 C   0  0  0  0  0  0  0  0  0  0  0  0
    6.9430   -4.0712   23.6997 N   0  0  0  0  0  0  0  0  0  0  0  0
    8.0550   -4.7024   24.4839 C   0  0  0  0  0  0  0  0  0  0  0  0
    9.0947   -3.8410   25.1374 C   0  0  0  0  0  0  0  0  0  0  0  0
   10.2068   -4.4722   25.9217 C   0  0  0  0  0  0  0  0  0  0  0  0
   11.2464   -3.6107   26.5752 C   0  0  0  0  0  0  0  0  0  0  0  0
   11.1741   -2.1182   26.4445 C   0  0  0  0  0  0  0  0  0  0  0  0
   10.0621   -1.4870   25.6603 C   0  0  0  0  0  0  0  0  0  0  0  0
    9.0224   -2.3484   25.0067 C   0  0  0  0  0  0  0  0  0  0  0  0
    7.9315    6.0157   23.4320 C   0  0  0  0  0  0  0  0  0  0  0  0
    8.5665    6.8677   25.8029 N   0  0  0  0  0  0  0  0  0  0  0  0
    8.4909    7.0867   24.3209 C   0  0  0  0  0  0  0  0  0  0  0  0
    8.9749    8.3767   23.7277 O   0  0  0  0  0  0  0  0  0  0  0  0
    8.2489    6.0211   26.1922 H   0  0  0  0  0  0  0  0  0  0  0  0
    9.8963    7.5646   27.9232 C   0  0  0  0  0  0  0  0  0  0  0  0
    9.1260    7.9387   26.6917 C   0  0  0  0  0  0  0  0  0  0  0  0
 34 35  1  0  0  0
 35 30  1  0  0  0
 30 31  1  0  0  0
 31 32  2  0  0  0
 31 29  1  0  0  0
 29  1  1  0  0  0
  1  2  1  0  0  0
  3  2  1  0  0  0
  3  4  1  0  0  0
  4  5  2  0  0  0
  4  6  1  0  0  0
  6 19  1  0  0  0
 19 20  2  0  0  0
 20 21  1  0  0  0
 21 22  2  0  0  0
 22 23  1  0  0  0
 23 24  2  0  0  0
 24 25  1  0  0  0
 25 26  2  0  0  0
 26 27  1  0  0  0
 27 28  2  0  0  0
  6  7  1  0  0  0
  7  8  1  0  0  0
  8  9  1  0  0  0
  3 10  1  0  0  0
 10 11  2  0  0  0
 11 12  1  0  0  0
 12 13  1  0  0  0
 12 14  2  0  0  0
 14 15  1  0  0  0
 15 16  2  0  0  0
 16 17  1  0  0  0
 17 18  2  0  0  0
 17  1  1  0  0  0
  8  3  1  0  0  0
 16 10  1  0  0  0
 28 19  1  0  0  0
 28 23  1  0  0  0
 30 33  1  0  0  0
M  END
> <minimizedAffinity>
-7.50297

> <CNNscore>
0.2997812927

> <CNNaffinity>
6.3066782951

> <CNN_VS>
1.8906241655

> <CNNaffinity_variance>
0.1793612540

$$$$



 35 39  0  0  0  0  0  0  0  0999 V2000
   10.4915    1.1349   23.2091 N   0  0  0  0  0  0  0  0  0  0  0  0
    9.1153    0.8035   23.7054 C   0  0  0  0  0  0  0  0  0  0  0  0
    8.9103   -0.3647   24.6237 C   0  0  0  0  0  0  0  0  0  0  0  0
    8.5527   -1.4959   25.5415 C   0  0  0  0  0  0  0  0  0  0  0  0
    9.0812   -2.4126   26.1388 O   0  0  0  0  0  0  0  0  0  0  0  0
    7.0715   -1.4535   25.7743 N   0  0  0  0  0  0  0  0  0  0  0  0
    6.5136   -0.2960   25.0005 C   0  0  0  0  0  0  0  0  0  0  0  0
    7.6501    0.3769   24.2893 C   0  0  0  0  0  0  0  0  0  0  0  0
    7.5448    1.5802   23.3999 C   0  0  0  0  0  0  0  0  0  0  0  0
   10.0816   -1.2015   25.0458 C   0  0  0  0  0  0  0  0  0  0  0  0
    9.8766   -2.3696   25.9641 C   0  0  0  0  0  0  0  0  0  0  0  0
   11.0478   -3.2063   26.3862 C   0  0  0  0  0  0  0  0  0  0  0  0
   10.8429   -4.3745   27.3046 Cl  0  0  0  0  0  0  0  0  0  0  0  0
   12.4240   -2.8748   25.8899 C   0  0  0  0  0  0  0  0  0  0  0  0
   12.6289   -1.7067   24.9716 C   0  0  0  0  0  0  0  0  0  0  0  0
   11.4577   -0.8700   24.5495 C   0  0  0  0  0  0  0  0  0  0  0  0
   11.6627    0.2982   23.6311 C   0  0  0  0  0  0  0  0  0  0  0  0
   13.0388    0.6296   23.1348 O   0  0  0  0  0  0  0  0  0  0  0  0
    6.2861   -2.4020   26.6307 C   0  0  0  0  0  0  0  0  0  0  0  0
    6.0588   -2.0910   28.0804 C   0  0  0  0  0  0  0  0  0  0  0  0
    5.2734   -3.0395   28.9368 N   0  0  0  0  0  0  0  0  0  0  0  0
    4.7153   -4.2991   28.3435 C   0  0  0  0  0  0  0  0  0  0  0  0
    4.9426   -4.6101   26.8938 C   0  0  0  0  0  0  0  0  0  0  0  0
    4.3845   -5.8697   26.3005 C   0  0  0  0  0  0  0  0  0  0  0  0
    4.6119   -6.1807   24.8508 C   0  0  0  0  0  0  0  0  0  0  0  0
    5.3973   -5.2321   23.9944 C   0  0  0  0  0  0  0  0  0  0  0  0
    5.9554   -3.9726   24.5877 C   0  0  0  0  0  0  0  0  0  0  0  0
    5.7280   -3.6616   26.0374 C   0  0  0  0  0  0  0  0  0  0  0  0
   10.6964    2.3031   22.2907 C   0  0  0  0  0  0  0  0  0  0  0  0
   10.0356    4.7823   22.6994 N   0  0  0  0  0  0  0  0  0  0  0  0
   11.0132    3.6556   22.8568 C   0  0  0  0  0  0  0  0  0  0  0  0
   12.3077    3.8813   23.5803 O   0  0  0  0  0  0  0  0  0  0  0  0
    9.1860    4.6341   22.2246 H   0  0  0  0  0  0  0  0  0  0  0  0
   11.0824    7.1449   22.4309 C   0  0  0  0  0  0  0  0  0  0  0  0
   10.3524    6.1347   23.2655 C   0  0  0  0  0  0  0  0  0  0  0  0
 34 35  1  0  0  0
 35 30  1  0  0  0
 30 31  1  0  0  0
 31 32  2  0  0  0
 31 29  1  0  0  0
 29  1  1  0  0  0
  1  2  1  0  0  0
  3  2  1  0  0  0
  3  4  1  0  0  0
  4  5  2  0  0  0
  4  6  1  0  0  0
  6 19  1  0  0  0
 19 20  2  0  0  0
 20 21  1  0  0  0
 21 22  2  0  0  0
 22 23  1  0  0  0
 23 24  2  0  0  0
 24 25  1  0  0  0
 25 26  2  0  0  0
 26 27  1  0  0  0
 27 28  2  0  0  0
  6  7  1  0  0  0
  7  8  1  0  0  0
  8  9  1  0  0  0
  3 10  1  0  0  0
 10 11  2  0  0  0
 11 12  1  0  0  0
 12 13  1  0  0  0
 12 14  2  0  0  0
 14 15  1  0  0  0
 15 16  2  0  0  0
 16 17  1  0  0  0
 17 18  2  0  0  0
 17  1  1  0  0  0
  8  3  1  0  0  0
 16 10  1  0  0  0
 28 19  1  0  0  0
 28 23  1  0  0  0
 30 33  1  0  0  0
M  END
> <minimizedAffinity>
-8.10989

> <CNNscore>
0.2965986729

> <CNNaffinity>
6.4351282120

> <CNN_VS>
1.9086505175

> <CNNaffinity_variance>
0.1846337765

$$$$



 35 39  0  0  0  0  0  0  0  0999 V2000
    9.2992    0.5011   22.8015 N   0  0  0  0  0  0  0  0  0  0  0  0
    8.1910   -0.5043   22.6959 C   0  0  0  0  0  0  0  0  0  0  0  0
    8.2588   -1.7804   23.4812 C   0  0  0  0  0  0  0  0  0  0  0  0
    8.1883   -3.0940   24.2021 C   0  0  0  0  0  0  0  0  0  0  0  0
    8.8311   -3.7590   24.9900 O   0  0  0  0  0  0  0  0  0  0  0  0
    6.9124   -3.7741   23.8026 N   0  0  0  0  0  0  0  0  0  0  0  0
    6.1944   -2.8809   22.8348 C   0  0  0  0  0  0  0  0  0  0  0  0
    7.0265   -1.6488   22.6362 C   0  0  0  0  0  0  0  0  0  0  0  0
    6.6860   -0.4887   21.7484 C   0  0  0  0  0  0  0  0  0  0  0  0
    9.4348   -2.0513   24.3722 C   0  0  0  0  0  0  0  0  0  0  0  0
    9.5025   -3.3275   25.1574 C   0  0  0  0  0  0  0  0  0  0  0  0
   10.6785   -3.5983   26.0483 C   0  0  0  0  0  0  0  0  0  0  0  0
   10.7463   -4.8746   26.8337 Cl  0  0  0  0  0  0  0  0  0  0  0  0
   11.7867   -2.5930   26.1539 C   0  0  0  0  0  0  0  0  0  0  0  0
   11.7189   -1.3168   25.3687 C   0  0  0  0  0  0  0  0  0  0  0  0
   10.5430   -1.0460   24.4778 C   0  0  0  0  0  0  0  0  0  0  0  0
   10.4752    0.2303   23.6924 C   0  0  0  0  0  0  0  0  0  0  0  0
   11.5834    1.2356   23.7980 O   0  0  0  0  0  0  0  0  0  0  0  0
    6.4380   -5.1125   24.2860 C   0  0  0  0  0  0  0  0  0  0  0  0
    7.0883   -6.3662   23.7806 C   0  0  0  0  0  0  0  0  0  0  0  0
    6.6138   -7.7045   24.2640 N   0  0  0  0  0  0  0  0  0  0  0  0
    5.4891   -7.7892   25.2528 C   0  0  0  0  0  0  0  0  0  0  0  0
    4.8388   -6.5355   25.7582 C   0  0  0  0  0  0  0  0  0  0  0  0
    3.7140   -6.6202   26.7471 C   0  0  0  0  0  0  0  0  0  0  0  0
    3.0638   -5.3664   27.2524 C   0  0  0  0  0  0  0  0  0  0  0  0
    3.5382   -4.0281   26.7690 C   0  0  0  0  0  0  0  0  0  0  0  0
    4.6630   -3.9434   25.7802 C   0  0  0  0  0  0  0  0  0  0  0  0
    5.3133   -5.1971   25.2748 C   0  0  0  0  0  0  0  0  0  0  0  0
    9.2314    1.7773   22.0162 C   0  0  0  0  0  0  0  0  0  0  0  0
    7.2731    3.4572   22.3208 N   0  0  0  0  0  0  0  0  0  0  0  0
    7.9030    2.3176   21.5763 C   0  0  0  0  0  0  0  0  0  0  0  0
    7.2046    1.7181   20.3918 O   0  0  0  0  0  0  0  0  0  0  0  0
    7.7315    3.8506   23.0982 H   0  0  0  0  0  0  0  0  0  0  0  0
    5.7656    5.4725   21.6759 C   0  0  0  0  0  0  0  0  0  0  0  0
    5.9447    3.9975   21.8809 C   0  0  0  0  0  0  0  0  0  0  0  0
 34 35  1  0  0  0
 35 30  1  0  0  0
 30 31  1  0  0  0
 31 32  2  0  0  0
 31 29  1  0  0  0
 29  1  1  0  0  0
  1  2  1  0  0  0
  3  2  1  0  0  0
  3  4  1  0  0  0
  4  5  2  0  0  0
  4  6  1  0  0  0
  6 19  1  0  0  0
 19 20  2  0  0  0
 20 21  1  0  0  0
 21 22  2  0  0  0
 22 23  1  0  0  0
 23 24  2  0  0  0
 24 25  1  0  0  0
 25 26  2  0  0  0
 26 27  1  0  0  0
 27 28  2  0  0  0
  6  7  1  0  0  0
  7  8  1  0  0  0
  8  9  1  0  0  0
  3 10  1  0  0  0
 10 11  2  0  0  0
 11 12  1  0  0  0
 12 13  1  0  0  0
 12 14  2  0  0  0
 14 15  1  0  0  0
 15 16  2  0  0  0
 16 17  1  0  0  0
 17 18  2  0  0  0
 17  1  1  0  0  0
  8  3  1  0  0  0
 16 10  1  0  0  0
 28 19  1  0  0  0
 28 23  1  0  0  0
 30 33  1  0  0  0
M  END
> <minimizedAffinity>
-8.20341

> <CNNscore>
0.2818640471

> <CNNaffinity>
6.3916392326

> <CNN_VS>
1.8015732765

> <CNNaffinity_variance>
0.1640075892

$$$$



 35 39  0  0  0  0  0  0  0  0999 V2000
    9.6398    0.6207   22.8305 N   0  0  0  0  0  0  0  0  0  0  0  0
    8.5251   -0.3701   22.6704 C   0  0  0  0  0  0  0  0  0  0  0  0
    8.5389   -1.6480   23.4557 C   0  0  0  0  0  0  0  0  0  0  0  0
    8.4172   -2.9613   24.1701 C   0  0  0  0  0  0  0  0  0  0  0  0
    9.0130   -3.6355   24.9867 O   0  0  0  0  0  0  0  0  0  0  0  0
    7.1532   -3.6245   23.7090 N   0  0  0  0  0  0  0  0  0  0  0  0
    6.4937   -2.7210   22.7096 C   0  0  0  0  0  0  0  0  0  0  0  0
    7.3501   -1.4995   22.5531 C   0  0  0  0  0  0  0  0  0  0  0  0
    7.0673   -0.3340   21.6521 C   0  0  0  0  0  0  0  0  0  0  0  0
    9.6674   -1.9351   24.4014 C   0  0  0  0  0  0  0  0  0  0  0  0
    9.6811   -3.2129   25.1867 C   0  0  0  0  0  0  0  0  0  0  0  0
   10.8096   -3.4999   26.1323 C   0  0  0  0  0  0  0  0  0  0  0  0
   10.8234   -4.7778   26.9177 Cl  0  0  0  0  0  0  0  0  0  0  0  0
   11.9243   -2.5091   26.2924 C   0  0  0  0  0  0  0  0  0  0  0  0
   11.9106   -1.2312   25.5071 C   0  0  0  0  0  0  0  0  0  0  0  0
   10.7821   -0.9442   24.5615 C   0  0  0  0  0  0  0  0  0  0  0  0
   10.7683    0.3337   23.7761 C   0  0  0  0  0  0  0  0  0  0  0  0
   11.8830    1.3245   23.9362 O   0  0  0  0  0  0  0  0  0  0  0  0
    6.6390   -4.9572   24.1668 C   0  0  0  0  0  0  0  0  0  0  0  0
    7.2461   -6.2198   23.6307 C   0  0  0  0  0  0  0  0  0  0  0  0
    6.7319   -7.5524   24.0886 N   0  0  0  0  0  0  0  0  0  0  0  0
    5.6107   -7.6225   25.0825 C   0  0  0  0  0  0  0  0  0  0  0  0
    5.0037   -6.3599   25.6186 C   0  0  0  0  0  0  0  0  0  0  0  0
    3.8824   -6.4300   26.6126 C   0  0  0  0  0  0  0  0  0  0  0  0
    3.2754   -5.1674   27.1487 C   0  0  0  0  0  0  0  0  0  0  0  0
    3.7896   -3.8347   26.6908 C   0  0  0  0  0  0  0  0  0  0  0  0
    4.9108   -3.7646   25.6969 C   0  0  0  0  0  0  0  0  0  0  0  0
    5.5178   -5.0272   25.1608 C   0  0  0  0  0  0  0  0  0  0  0  0
    9.6260    1.8986   22.0451 C   0  0  0  0  0  0  0  0  0  0  0  0
   10.0997    4.2709   22.9924 N   0  0  0  0  0  0  0  0  0  0  0  0
   10.5942    2.9946   22.3789 C   0  0  0  0  0  0  0  0  0  0  0  0
   12.0568    2.8142   22.0992 O   0  0  0  0  0  0  0  0  0  0  0  0
    9.1398    4.3893   23.1760 H   0  0  0  0  0  0  0  0  0  0  0  0
   10.9784    6.6874   22.6204 C   0  0  0  0  0  0  0  0  0  0  0  0
   11.0679    5.3669   23.3263 C   0  0  0  0  0  0  0  0  0  0  0  0
 34 35  1  0  0  0
 35 30  1  0  0  0
 30 31  1  0  0  0
 31 32  2  0  0  0
 31 29  1  0  0  0
 29  1  1  0  0  0
  1  2  1  0  0  0
  3  2  1  0  0  0
  3  4  1  0  0  0
  4  5  2  0  0  0
  4  6  1  0  0  0
  6 19  1  0  0  0
 19 20  2  0  0  0
 20 21  1  0  0  0
 21 22  2  0  0  0
 22 23  1  0  0  0
 23 24  2  0  0  0
 24 25  1  0  0  0
 25 26  2  0  0  0
 26 27  1  0  0  0
 27 28  2  0  0  0
  6  7  1  0  0  0
  7  8  1  0  0  0
  8  9  1  0  0  0
  3 10  1  0  0  0
 10 11  2  0  0  0
 11 12  1  0  0  0
 12 13  1  0  0  0
 12 14  2  0  0  0
 14 15  1  0  0  0
 15 16  2  0  0  0
 16 17  1  0  0  0
 17 18  2  0  0  0
 17  1  1  0  0  0
  8  3  1  0  0  0
 16 10  1  0  0  0
 28 19  1  0  0  0
 28 23  1  0  0  0
 30 33  1  0  0  0
M  END
> <minimizedAffinity>
-8.38582

> <CNNscore>
0.2343996614

> <CNNaffinity>
6.3704533577

> <CNN_VS>
1.4932321310

> <CNNaffinity_variance>
0.2013892233

$$$$
