


 35 39  0  0  0  0  0  0  0  0999 V2000
   -7.2932   -1.3386  -22.5978 N   0  0  0  0  0  0  0  0  0  0  0  0
   -7.5096    0.1113  -22.9156 C   0  0  0  0  0  0  0  0  0  0  0  0
   -8.8980    0.6287  -23.1494 C   0  0  0  0  0  0  0  0  0  0  0  0
  -10.2211    1.2871  -23.4061 C   0  0  0  0  0  0  0  0  0  0  0  0
  -11.4034    1.0116  -23.4580 O   0  0  0  0  0  0  0  0  0  0  0  0
   -9.9702    2.7401  -23.6816 N   0  0  0  0  0  0  0  0  0  0  0  0
   -8.4920    2.9797  -23.5952 C   0  0  0  0  0  0  0  0  0  0  0  0
   -7.8294    1.6748  -23.2662 C   0  0  0  0  0  0  0  0  0  0  0  0
   -6.3566    1.4547  -23.0858 C   0  0  0  0  0  0  0  0  0  0  0  0
  -10.0700   -0.3038  -23.0653 C   0  0  0  0  0  0  0  0  0  0  0  0
  -11.4583    0.2136  -23.2990 C   0  0  0  0  0  0  0  0  0  0  0  0
  -12.6303   -0.7188  -23.2150 C   0  0  0  0  0  0  0  0  0  0  0  0
  -14.0187   -0.2014  -23.4487 Cl  0  0  0  0  0  0  0  0  0  0  0  0
  -12.4138   -2.1687  -22.8972 C   0  0  0  0  0  0  0  0  0  0  0  0
  -11.0254   -2.6861  -22.6635 C   0  0  0  0  0  0  0  0  0  0  0  0
   -9.8535   -1.7537  -22.7475 C   0  0  0  0  0  0  0  0  0  0  0  0
   -8.4651   -2.2711  -22.5138 C   0  0  0  0  0  0  0  0  0  0  0  0
   -8.2486   -3.7209  -22.1960 O   0  0  0  0  0  0  0  0  0  0  0  0
  -11.0142    3.7722  -23.9895 C   0  0  0  0  0  0  0  0  0  0  0  0
  -11.9127    4.2783  -22.9002 C   0  0  0  0  0  0  0  0  0  0  0  0
  -12.9567    5.3104  -23.2081 N   0  0  0  0  0  0  0  0  0  0  0  0
  -13.1022    5.8364  -24.6053 C   0  0  0  0  0  0  0  0  0  0  0  0
  -12.2037    5.3302  -25.6946 C   0  0  0  0  0  0  0  0  0  0  0  0
  -12.3492    5.8563  -27.0919 C   0  0  0  0  0  0  0  0  0  0  0  0
  -11.4506    5.3501  -28.1811 C   0  0  0  0  0  0  0  0  0  0  0  0
  -10.4066    4.3180  -27.8732 C   0  0  0  0  0  0  0  0  0  0  0  0
  -10.2611    3.7920  -26.4760 C   0  0  0  0  0  0  0  0  0  0  0  0
  -11.1597    4.2981  -25.3867 C   0  0  0  0  0  0  0  0  0  0  0  0
   -5.9047   -1.8560  -22.3641 C   0  0  0  0  0  0  0  0  0  0  0  0
   -5.7508   -4.4326  -22.6596 N   0  0  0  0  0  0  0  0  0  0  0  0
   -5.7021   -3.2212  -21.7765 C   0  0  0  0  0  0  0  0  0  0  0  0
   -5.4508   -3.3749  -20.3056 O   0  0  0  0  0  0  0  0  0  0  0  0
   -5.9157   -4.3317  -23.6250 H   0  0  0  0  0  0  0  0  0  0  0  0
   -6.6654   -6.7984  -22.0969 C   0  0  0  0  0  0  0  0  0  0  0  0
   -5.5482   -5.7978  -22.0720 C   0  0  0  0  0  0  0  0  0  0  0  0
 34 35  1  0  0  0
 35 30  1  0  0  0
 30 31  1  0  0  0
 31 32  2  0  0  0
 31 29  1  0  0  0
 29  1  1  0  0  0
  1  2  1  0  0  0
  3  2  1  0  0  0
  3  4  1  0  0  0
  4  5  2  0  0  0
  4  6  1  0  0  0
  6 19  1  0  0  0
 19 20  2  0  0  0
 20 21  1  0  0  0
 21 22  2  0  0  0
 22 23  1  0  0  0
 23 24  2  0  0  0
 24 25  1  0  0  0
 25 26  2  0  0  0
 26 27  1  0  0  0
 27 28  2  0  0  0
  6  7  1  0  0  0
  7  8  1  0  0  0
  8  9  1  0  0  0
  3 10  1  0  0  0
 10 11  2  0  0  0
 11 12  1  0  0  0
 12 13  1  0  0  0
 12 14  2  0  0  0
 14 15  1  0  0  0
 15 16  2  0  0  0
 16 17  1  0  0  0
 17 18  2  0  0  0
 17  1  1  0  0  0
  8  3  1  0  0  0
 16 10  1  0  0  0
 28 19  1  0  0  0
 28 23  1  0  0  0
 30 33  1  0  0  0
M  END
> <minimizedAffinity>
-7.43837

> <CNNscore>
0.6777057648

> <CNNaffinity>
6.5710220337

> <CNN_VS>
4.4532194138

> <CNNaffinity_variance>
0.0329461135

$$$$



 35 39  0  0  0  0  0  0  0  0999 V2000
   -9.4167    2.7947  -24.6265 N   0  0  0  0  0  0  0  0  0  0  0  0
   -8.4841    1.6252  -24.7371 C   0  0  0  0  0  0  0  0  0  0  0  0
   -8.9638    0.2476  -24.3876 C   0  0  0  0  0  0  0  0  0  0  0  0
   -9.2994   -1.1804  -24.0744 C   0  0  0  0  0  0  0  0  0  0  0  0
  -10.2348   -1.8541  -23.6904 O   0  0  0  0  0  0  0  0  0  0  0  0
   -8.0748   -2.0099  -24.3241 N   0  0  0  0  0  0  0  0  0  0  0  0
   -6.9823   -1.0945  -24.7916 C   0  0  0  0  0  0  0  0  0  0  0  0
   -7.5318    0.3007  -24.8308 C   0  0  0  0  0  0  0  0  0  0  0  0
   -6.7810    1.5327  -25.2413 C   0  0  0  0  0  0  0  0  0  0  0  0
  -10.3763    0.0396  -23.9273 C   0  0  0  0  0  0  0  0  0  0  0  0
  -10.8560   -1.3379  -23.5778 C   0  0  0  0  0  0  0  0  0  0  0  0
  -12.2684   -1.5459  -23.1176 C   0  0  0  0  0  0  0  0  0  0  0  0
  -12.7482   -2.9234  -22.7680 Cl  0  0  0  0  0  0  0  0  0  0  0  0
  -13.2011   -0.3763  -23.0070 C   0  0  0  0  0  0  0  0  0  0  0  0
  -12.7214    1.0012  -23.3565 C   0  0  0  0  0  0  0  0  0  0  0  0
  -11.3089    1.2092  -23.8167 C   0  0  0  0  0  0  0  0  0  0  0  0
  -10.8291    2.5868  -24.1663 C   0  0  0  0  0  0  0  0  0  0  0  0
  -11.7618    3.7564  -24.0556 O   0  0  0  0  0  0  0  0  0  0  0  0
   -7.9624   -3.4941  -24.1388 C   0  0  0  0  0  0  0  0  0  0  0  0
   -7.3829   -4.0501  -22.8719 C   0  0  0  0  0  0  0  0  0  0  0  0
   -7.2705   -5.5343  -22.6866 N   0  0  0  0  0  0  0  0  0  0  0  0
   -7.7376   -6.4626  -23.7682 C   0  0  0  0  0  0  0  0  0  0  0  0
   -8.3172   -5.9067  -25.0352 C   0  0  0  0  0  0  0  0  0  0  0  0
   -8.7844   -6.8351  -26.1169 C   0  0  0  0  0  0  0  0  0  0  0  0
   -9.3639   -6.2790  -27.3837 C   0  0  0  0  0  0  0  0  0  0  0  0
   -9.4763   -4.7948  -27.5690 C   0  0  0  0  0  0  0  0  0  0  0  0
   -9.0091   -3.8665  -26.4874 C   0  0  0  0  0  0  0  0  0  0  0  0
   -8.4296   -4.4224  -25.2205 C   0  0  0  0  0  0  0  0  0  0  0  0
   -8.9369    4.1723  -24.9760 C   0  0  0  0  0  0  0  0  0  0  0  0
   -8.0211    5.1314  -22.7419 N   0  0  0  0  0  0  0  0  0  0  0  0
   -7.8233    4.8002  -24.1914 C   0  0  0  0  0  0  0  0  0  0  0  0
   -6.5118    5.0968  -24.8564 O   0  0  0  0  0  0  0  0  0  0  0  0
   -8.8818    4.9367  -22.3055 H   0  0  0  0  0  0  0  0  0  0  0  0
   -6.5526    7.1996  -22.1797 C   0  0  0  0  0  0  0  0  0  0  0  0
   -6.9074    5.7593  -21.9573 C   0  0  0  0  0  0  0  0  0  0  0  0
 34 35  1  0  0  0
 35 30  1  0  0  0
 30 31  1  0  0  0
 31 32  2  0  0  0
 31 29  1  0  0  0
 29  1  1  0  0  0
  1  2  1  0  0  0
  3  2  1  0  0  0
  3  4  1  0  0  0
  4  5  2  0  0  0
  4  6  1  0  0  0
  6 19  1  0  0  0
 19 20  2  0  0  0
 20 21  1  0  0  0
 21 22  2  0  0  0
 22 23  1  0  0  0
 23 24  2  0  0  0
 24 25  1  0  0  0
 25 26  2  0  0  0
 26 27  1  0  0  0
 27 28  2  0  0  0
  6  7  1  0  0  0
  7  8  1  0  0  0
  8  9  1  0  0  0
  3 10  1  0  0  0
 10 11  2  0  0  0
 11 12  1  0  0  0
 12 13  1  0  0  0
 12 14  2  0  0  0
 14 15  1  0  0  0
 15 16  2  0  0  0
 16 17  1  0  0  0
 17 18  2  0  0  0
 17  1  1  0  0  0
  8  3  1  0  0  0
 16 10  1  0  0  0
 28 19  1  0  0  0
 28 23  1  0  0  0
 30 33  1  0  0  0
M  END
> <minimizedAffinity>
-7.34049

> <CNNscore>
0.5347667933

> <CNNaffinity>
6.4460401535

> <CNN_VS>
3.4471282959

> <CNNaffinity_variance>
0.0985657722

$$$$



 35 39  0  0  0  0  0  0  0  0999 V2000
   -6.9996   -1.3179  -22.6390 N   0  0  0  0  0  0  0  0  0  0  0  0
   -7.0999    0.0086  -23.3321 C   0  0  0  0  0  0  0  0  0  0  0  0
   -8.4382    0.5292  -23.7652 C   0  0  0  0  0  0  0  0  0  0  0  0
   -9.7006    1.1757  -24.2534 C   0  0  0  0  0  0  0  0  0  0  0  0
  -10.8970    0.9677  -24.2951 O   0  0  0  0  0  0  0  0  0  0  0  0
   -9.3363    2.4881  -24.8818 N   0  0  0  0  0  0  0  0  0  0  0  0
   -7.8488    2.6528  -24.7818 C   0  0  0  0  0  0  0  0  0  0  0  0
   -7.2937    1.4421  -24.0917 C   0  0  0  0  0  0  0  0  0  0  0  0
   -5.8480    1.1889  -23.7825 C   0  0  0  0  0  0  0  0  0  0  0  0
   -9.6764   -0.2767  -23.5052 C   0  0  0  0  0  0  0  0  0  0  0  0
  -11.0148    0.2439  -23.9383 C   0  0  0  0  0  0  0  0  0  0  0  0
  -12.2529   -0.5619  -23.6783 C   0  0  0  0  0  0  0  0  0  0  0  0
  -13.5914   -0.0413  -24.1114 Cl  0  0  0  0  0  0  0  0  0  0  0  0
  -12.1526   -1.8884  -22.9852 C   0  0  0  0  0  0  0  0  0  0  0  0
  -10.8143   -2.4090  -22.5521 C   0  0  0  0  0  0  0  0  0  0  0  0
   -9.5762   -1.6032  -22.8121 C   0  0  0  0  0  0  0  0  0  0  0  0
   -8.2377   -2.1238  -22.3790 C   0  0  0  0  0  0  0  0  0  0  0  0
   -8.1374   -3.4502  -21.6858 O   0  0  0  0  0  0  0  0  0  0  0  0
  -10.2919    3.4644  -25.5012 C   0  0  0  0  0  0  0  0  0  0  0  0
  -10.1820    3.7991  -26.9593 C   0  0  0  0  0  0  0  0  0  0  0  0
  -11.1375    4.7755  -27.5788 N   0  0  0  0  0  0  0  0  0  0  0  0
  -12.2029    5.4171  -26.7402 C   0  0  0  0  0  0  0  0  0  0  0  0
  -12.3128    5.0824  -25.2821 C   0  0  0  0  0  0  0  0  0  0  0  0
  -13.3782    5.7240  -24.4435 C   0  0  0  0  0  0  0  0  0  0  0  0
  -13.4880    5.3893  -22.9854 C   0  0  0  0  0  0  0  0  0  0  0  0
  -12.5325    4.4130  -22.3660 C   0  0  0  0  0  0  0  0  0  0  0  0
  -11.4671    3.7713  -23.2046 C   0  0  0  0  0  0  0  0  0  0  0  0
  -11.3573    4.1060  -24.6626 C   0  0  0  0  0  0  0  0  0  0  0  0
   -5.6611   -1.8385  -22.2059 C   0  0  0  0  0  0  0  0  0  0  0  0
   -5.6629   -4.4076  -22.5932 N   0  0  0  0  0  0  0  0  0  0  0  0
   -5.5371   -3.2334  -21.6683 C   0  0  0  0  0  0  0  0  0  0  0  0
   -5.2872   -3.4541  -20.2058 O   0  0  0  0  0  0  0  0  0  0  0  0
   -5.8269   -4.2627  -23.5531 H   0  0  0  0  0  0  0  0  0  0  0  0
   -6.7333   -6.7097  -22.0414 C   0  0  0  0  0  0  0  0  0  0  0  0
   -5.5389   -5.8024  -22.0556 C   0  0  0  0  0  0  0  0  0  0  0  0
 34 35  1  0  0  0
 35 30  1  0  0  0
 30 31  1  0  0  0
 31 32  2  0  0  0
 31 29  1  0  0  0
 29  1  1  0  0  0
  1  2  1  0  0  0
  3  2  1  0  0  0
  3  4  1  0  0  0
  4  5  2  0  0  0
  4  6  1  0  0  0
  6 19  1  0  0  0
 19 20  2  0  0  0
 20 21  1  0  0  0
 21 22  2  0  0  0
 22 23  1  0  0  0
 23 24  2  0  0  0
 24 25  1  0  0  0
 25 26  2  0  0  0
 26 27  1  0  0  0
 27 28  2  0  0  0
  6  7  1  0  0  0
  7  8  1  0  0  0
  8  9  1  0  0  0
  3 10  1  0  0  0
 10 11  2  0  0  0
 11 12  1  0  0  0
 12 13  1  0  0  0
 12 14  2  0  0  0
 14 15  1  0  0  0
 15 16  2  0  0  0
 16 17  1  0  0  0
 17 18  2  0  0  0
 17  1  1  0  0  0
  8  3  1  0  0  0
 16 10  1  0  0  0
 28 19  1  0  0  0
 28 23  1  0  0  0
 30 33  1  0  0  0
M  END
> <minimizedAffinity>
-7.14362

> <CNNscore>
0.5018467307

> <CNNaffinity>
6.4361472130

> <CNN_VS>
3.2299594879

> <CNNaffinity_variance>
0.1468095630

$$$$



 35 39  0  0  0  0  0  0  0  0999 V2000
  -10.5827    3.7135  -24.0404 N   0  0  0  0  0  0  0  0  0  0  0  0
   -9.3246    2.8972  -24.0087 C   0  0  0  0  0  0  0  0  0  0  0  0
   -9.3965    1.4174  -23.7741 C   0  0  0  0  0  0  0  0  0  0  0  0
   -9.3117   -0.0635  -23.5511 C   0  0  0  0  0  0  0  0  0  0  0  0
  -10.0367   -1.0173  -23.3487 O   0  0  0  0  0  0  0  0  0  0  0  0
   -7.8651   -0.4575  -23.5991 N   0  0  0  0  0  0  0  0  0  0  0  0
   -7.0559    0.7800  -23.8518 C   0  0  0  0  0  0  0  0  0  0  0  0
   -8.0023    1.9387  -23.9599 C   0  0  0  0  0  0  0  0  0  0  0  0
   -7.6213    3.3678  -24.2100 C   0  0  0  0  0  0  0  0  0  0  0  0
  -10.7264    0.7539  -23.5711 C   0  0  0  0  0  0  0  0  0  0  0  0
  -10.7982   -0.7259  -23.3365 C   0  0  0  0  0  0  0  0  0  0  0  0
  -12.1280   -1.3893  -23.1335 C   0  0  0  0  0  0  0  0  0  0  0  0
  -12.1999   -2.8692  -22.8989 Cl  0  0  0  0  0  0  0  0  0  0  0  0
  -13.3861   -0.5730  -23.1651 C   0  0  0  0  0  0  0  0  0  0  0  0
  -13.3142    0.9067  -23.3997 C   0  0  0  0  0  0  0  0  0  0  0  0
  -11.9844    1.5702  -23.6027 C   0  0  0  0  0  0  0  0  0  0  0  0
  -11.9125    3.0500  -23.8374 C   0  0  0  0  0  0  0  0  0  0  0  0
  -13.1706    3.8663  -23.8690 O   0  0  0  0  0  0  0  0  0  0  0  0
   -7.3231   -1.8452  -23.4250 C   0  0  0  0  0  0  0  0  0  0  0  0
   -6.7564   -2.2686  -22.1023 C   0  0  0  0  0  0  0  0  0  0  0  0
   -6.2143   -3.6563  -21.9282 N   0  0  0  0  0  0  0  0  0  0  0  0
   -6.2390   -4.6207  -23.0768 C   0  0  0  0  0  0  0  0  0  0  0  0
   -6.8057   -4.1973  -24.3995 C   0  0  0  0  0  0  0  0  0  0  0  0
   -6.8303   -5.1617  -25.5482 C   0  0  0  0  0  0  0  0  0  0  0  0
   -7.3971   -4.7383  -26.8709 C   0  0  0  0  0  0  0  0  0  0  0  0
   -7.9391   -3.3505  -27.0450 C   0  0  0  0  0  0  0  0  0  0  0  0
   -7.9145   -2.3862  -25.8964 C   0  0  0  0  0  0  0  0  0  0  0  0
   -7.3477   -2.8096  -24.5736 C   0  0  0  0  0  0  0  0  0  0  0  0
  -10.5108    5.1933  -24.2750 C   0  0  0  0  0  0  0  0  0  0  0  0
  -11.8714    5.0157  -26.4811 N   0  0  0  0  0  0  0  0  0  0  0  0
  -10.9104    5.7622  -25.6042 C   0  0  0  0  0  0  0  0  0  0  0  0
  -10.3489    7.0777  -26.0564 O   0  0  0  0  0  0  0  0  0  0  0  0
  -12.2400    4.1524  -26.1843 H   0  0  0  0  0  0  0  0  0  0  0  0
  -11.5532    5.1564  -29.0558 C   0  0  0  0  0  0  0  0  0  0  0  0
  -12.2710    5.5846  -27.8103 C   0  0  0  0  0  0  0  0  0  0  0  0
 34 35  1  0  0  0
 35 30  1  0  0  0
 30 31  1  0  0  0
 31 32  2  0  0  0
 31 29  1  0  0  0
 29  1  1  0  0  0
  1  2  1  0  0  0
  3  2  1  0  0  0
  3  4  1  0  0  0
  4  5  2  0  0  0
  4  6  1  0  0  0
  6 19  1  0  0  0
 19 20  2  0  0  0
 20 21  1  0  0  0
 21 22  2  0  0  0
 22 23  1  0  0  0
 23 24  2  0  0  0
 24 25  1  0  0  0
 25 26  2  0  0  0
 26 27  1  0  0  0
 27 28  2  0  0  0
  6  7  1  0  0  0
  7  8  1  0  0  0
  8  9  1  0  0  0
  3 10  1  0  0  0
 10 11  2  0  0  0
 11 12  1  0  0  0
 12 13  1  0  0  0
 12 14  2  0  0  0
 14 15  1  0  0  0
 15 16  2  0  0  0
 16 17  1  0  0  0
 17 18  2  0  0  0
 17  1  1  0  0  0
  8  3  1  0  0  0
 16 10  1  0  0  0
 28 19  1  0  0  0
 28 23  1  0  0  0
 30 33  1  0  0  0
M  END
> <minimizedAffinity>
-6.96133

> <CNNscore>
0.4077073038

> <CNNaffinity>
6.3242168427

> <CNN_VS>
2.5784294605

> <CNNaffinity_variance>
0.3697213531

$$$$



 35 39  0  0  0  0  0  0  0  0999 V2000
   -9.2829    2.7093  -24.8155 N   0  0  0  0  0  0  0  0  0  0  0  0
   -8.3485    1.5378  -24.8833 C   0  0  0  0  0  0  0  0  0  0  0  0
   -8.8259    0.1735  -24.4827 C   0  0  0  0  0  0  0  0  0  0  0  0
   -9.1591   -1.2425  -24.1167 C   0  0  0  0  0  0  0  0  0  0  0  0
  -10.0933   -1.9029  -23.7075 O   0  0  0  0  0  0  0  0  0  0  0  0
   -7.9333   -2.0788  -24.3362 N   0  0  0  0  0  0  0  0  0  0  0  0
   -6.8425   -1.1796  -24.8378 C   0  0  0  0  0  0  0  0  0  0  0  0
   -7.3942    0.2123  -24.9284 C   0  0  0  0  0  0  0  0  0  0  0  0
   -6.6455    1.4294  -25.3846 C   0  0  0  0  0  0  0  0  0  0  0  0
  -10.2378   -0.0195  -24.0143 C   0  0  0  0  0  0  0  0  0  0  0  0
  -10.7152   -1.3839  -23.6138 C   0  0  0  0  0  0  0  0  0  0  0  0
  -12.1271   -1.5769  -23.1454 C   0  0  0  0  0  0  0  0  0  0  0  0
  -12.6046   -2.9413  -22.7448 Cl  0  0  0  0  0  0  0  0  0  0  0  0
  -13.0615   -0.4054  -23.0777 C   0  0  0  0  0  0  0  0  0  0  0  0
  -12.5841    0.9589  -23.4782 C   0  0  0  0  0  0  0  0  0  0  0  0
  -11.1723    1.1519  -23.9466 C   0  0  0  0  0  0  0  0  0  0  0  0
  -10.6948    2.5163  -24.3472 C   0  0  0  0  0  0  0  0  0  0  0  0
  -11.6292    3.6877  -24.2794 O   0  0  0  0  0  0  0  0  0  0  0  0
   -7.8185   -3.5550  -24.0961 C   0  0  0  0  0  0  0  0  0  0  0  0
   -7.2021   -4.0627  -22.8263 C   0  0  0  0  0  0  0  0  0  0  0  0
   -7.0873   -5.5389  -22.5862 N   0  0  0  0  0  0  0  0  0  0  0  0
   -7.5890   -6.5074  -23.6159 C   0  0  0  0  0  0  0  0  0  0  0  0
   -8.2054   -5.9997  -24.8857 C   0  0  0  0  0  0  0  0  0  0  0  0
   -8.7070   -6.9683  -25.9155 C   0  0  0  0  0  0  0  0  0  0  0  0
   -9.3234   -6.4605  -27.1852 C   0  0  0  0  0  0  0  0  0  0  0  0
   -9.4382   -4.9843  -27.4253 C   0  0  0  0  0  0  0  0  0  0  0  0
   -8.9366   -4.0158  -26.3956 C   0  0  0  0  0  0  0  0  0  0  0  0
   -8.3202   -4.5235  -25.1258 C   0  0  0  0  0  0  0  0  0  0  0  0
   -8.8054    4.0737  -25.2162 C   0  0  0  0  0  0  0  0  0  0  0  0
  -10.6103    5.7363  -26.0694 N   0  0  0  0  0  0  0  0  0  0  0  0
   -9.6799    5.2710  -24.9888 C   0  0  0  0  0  0  0  0  0  0  0  0
   -9.6240    6.0031  -23.6806 O   0  0  0  0  0  0  0  0  0  0  0  0
  -10.6471    5.2559  -26.9279 H   0  0  0  0  0  0  0  0  0  0  0  0
  -12.9242    6.7498  -25.4620 C   0  0  0  0  0  0  0  0  0  0  0  0
  -11.4848    6.9336  -25.8420 C   0  0  0  0  0  0  0  0  0  0  0  0
 34 35  1  0  0  0
 35 30  1  0  0  0
 30 31  1  0  0  0
 31 32  2  0  0  0
 31 29  1  0  0  0
 29  1  1  0  0  0
  1  2  1  0  0  0
  3  2  1  0  0  0
  3  4  1  0  0  0
  4  5  2  0  0  0
  4  6  1  0  0  0
  6 19  1  0  0  0
 19 20  2  0  0  0
 20 21  1  0  0  0
 21 22  2  0  0  0
 22 23  1  0  0  0
 23 24  2  0  0  0
 24 25  1  0  0  0
 25 26  2  0  0  0
 26 27  1  0  0  0
 27 28  2  0  0  0
  6  7  1  0  0  0
  7  8  1  0  0  0
  8  9  1  0  0  0
  3 10  1  0  0  0
 10 11  2  0  0  0
 11 12  1  0  0  0
 12 13  1  0  0  0
 12 14  2  0  0  0
 14 15  1  0  0  0
 15 16  2  0  0  0
 16 17  1  0  0  0
 17 18  2  0  0  0
 17  1  1  0  0  0
  8  3  1  0  0  0
 16 10  1  0  0  0
 28 19  1  0  0  0
 28 23  1  0  0  0
 30 33  1  0  0  0
M  END
> <minimizedAffinity>
-7.20617

> <CNNscore>
0.3833463192

> <CNNaffinity>
6.2539296150

> <CNN_VS>
2.3974208832

> <CNNaffinity_variance>
0.0639157742

$$$$



 35 39  0  0  0  0  0  0  0  0999 V2000
  -11.7299    4.0116  -23.9968 N   0  0  0  0  0  0  0  0  0  0  0  0
  -10.3346    3.4640  -23.9383 C   0  0  0  0  0  0  0  0  0  0  0  0
  -10.1131    1.9984  -23.7082 C   0  0  0  0  0  0  0  0  0  0  0  0
   -9.7378    0.5632  -23.4862 C   0  0  0  0  0  0  0  0  0  0  0  0
  -10.2609   -0.5179  -23.3021 O   0  0  0  0  0  0  0  0  0  0  0  0
   -8.2409    0.4677  -23.5023 N   0  0  0  0  0  0  0  0  0  0  0  0
   -7.6911    1.8439  -23.7342 C   0  0  0  0  0  0  0  0  0  0  0  0
   -8.8482    2.7899  -23.8615 C   0  0  0  0  0  0  0  0  0  0  0  0
   -8.7565    4.2680  -24.1001 C   0  0  0  0  0  0  0  0  0  0  0  0
  -11.2869    1.0804  -23.5366 C   0  0  0  0  0  0  0  0  0  0  0  0
  -11.0655   -0.3852  -23.3065 C   0  0  0  0  0  0  0  0  0  0  0  0
  -12.2392   -1.3032  -23.1349 C   0  0  0  0  0  0  0  0  0  0  0  0
  -12.0178   -2.7689  -22.9048 Cl  0  0  0  0  0  0  0  0  0  0  0  0
  -13.6345   -0.7557  -23.1933 C   0  0  0  0  0  0  0  0  0  0  0  0
  -13.8560    0.7099  -23.4234 C   0  0  0  0  0  0  0  0  0  0  0  0
  -12.6822    1.6279  -23.5950 C   0  0  0  0  0  0  0  0  0  0  0  0
  -12.9037    3.0936  -23.8251 C   0  0  0  0  0  0  0  0  0  0  0  0
  -14.2989    3.6412  -23.8836 O   0  0  0  0  0  0  0  0  0  0  0  0
   -7.4353   -0.7842  -23.3187 C   0  0  0  0  0  0  0  0  0  0  0  0
   -7.1867   -1.6939  -24.4851 C   0  0  0  0  0  0  0  0  0  0  0  0
   -6.3811   -2.9459  -24.3015 N   0  0  0  0  0  0  0  0  0  0  0  0
   -5.8242   -3.2880  -22.9514 C   0  0  0  0  0  0  0  0  0  0  0  0
   -6.0728   -2.3783  -21.7850 C   0  0  0  0  0  0  0  0  0  0  0  0
   -5.5159   -2.7205  -20.4348 C   0  0  0  0  0  0  0  0  0  0  0  0
   -5.7646   -1.8108  -19.2684 C   0  0  0  0  0  0  0  0  0  0  0  0
   -6.5702   -0.5588  -19.4521 C   0  0  0  0  0  0  0  0  0  0  0  0
   -7.1271   -0.2167  -20.8021 C   0  0  0  0  0  0  0  0  0  0  0  0
   -6.8784   -1.1264  -21.9686 C   0  0  0  0  0  0  0  0  0  0  0  0
  -11.9514    5.4773  -24.2269 C   0  0  0  0  0  0  0  0  0  0  0  0
  -13.6365    5.9968  -26.1348 N   0  0  0  0  0  0  0  0  0  0  0  0
  -12.2314    5.9854  -25.6101 C   0  0  0  0  0  0  0  0  0  0  0  0
  -11.1061    6.4820  -26.4688 O   0  0  0  0  0  0  0  0  0  0  0  0
  -14.3751    5.6709  -25.5712 H   0  0  0  0  0  0  0  0  0  0  0  0
  -13.2083    5.9035  -28.6956 C   0  0  0  0  0  0  0  0  0  0  0  0
  -13.9165    6.5049  -27.5181 C   0  0  0  0  0  0  0  0  0  0  0  0
 34 35  1  0  0  0
 35 30  1  0  0  0
 30 31  1  0  0  0
 31 32  2  0  0  0
 31 29  1  0  0  0
 29  1  1  0  0  0
  1  2  1  0  0  0
  3  2  1  0  0  0
  3  4  1  0  0  0
  4  5  2  0  0  0
  4  6  1  0  0  0
  6 19  1  0  0  0
 19 20  2  0  0  0
 20 21  1  0  0  0
 21 22  2  0  0  0
 22 23  1  0  0  0
 23 24  2  0  0  0
 24 25  1  0  0  0
 25 26  2  0  0  0
 26 27  1  0  0  0
 27 28  2  0  0  0
  6  7  1  0  0  0
  7  8  1  0  0  0
  8  9  1  0  0  0
  3 10  1  0  0  0
 10 11  2  0  0  0
 11 12  1  0  0  0
 12 13  1  0  0  0
 12 14  2  0  0  0
 14 15  1  0  0  0
 15 16  2  0  0  0
 16 17  1  0  0  0
 17 18  2  0  0  0
 17  1  1  0  0  0
  8  3  1  0  0  0
 16 10  1  0  0  0
 28 19  1  0  0  0
 28 23  1  0  0  0
 30 33  1  0  0  0
M  END
> <minimizedAffinity>
-7.83086

> <CNNscore>
0.3633082211

> <CNNaffinity>
6.3398971558

> <CNN_VS>
2.3033368587

> <CNNaffinity_variance>
0.0390641019

$$$$



 35 39  0  0  0  0  0  0  0  0999 V2000
   -8.4579   -5.6144  -24.4800 N   0  0  0  0  0  0  0  0  0  0  0  0
   -7.4031   -5.2627  -23.4732 C   0  0  0  0  0  0  0  0  0  0  0  0
   -7.4310   -3.9258  -22.7935 C   0  0  0  0  0  0  0  0  0  0  0  0
   -7.3297   -2.6345  -22.0371 C   0  0  0  0  0  0  0  0  0  0  0  0
   -7.9075   -1.5710  -21.9294 O   0  0  0  0  0  0  0  0  0  0  0  0
   -6.1284   -2.7143  -21.1424 N   0  0  0  0  0  0  0  0  0  0  0  0
   -5.4871   -4.0550  -21.3460 C   0  0  0  0  0  0  0  0  0  0  0  0
   -6.2922   -4.8037  -22.3664 C   0  0  0  0  0  0  0  0  0  0  0  0
   -6.0082   -6.1874  -22.8711 C   0  0  0  0  0  0  0  0  0  0  0  0
   -8.5138   -2.9406  -23.1206 C   0  0  0  0  0  0  0  0  0  0  0  0
   -8.5417   -1.6037  -22.4410 C   0  0  0  0  0  0  0  0  0  0  0  0
   -9.6244   -0.6186  -22.7681 C   0  0  0  0  0  0  0  0  0  0  0  0
   -9.6524    0.7184  -22.0884 Cl  0  0  0  0  0  0  0  0  0  0  0  0
  -10.6792   -0.9702  -23.7749 C   0  0  0  0  0  0  0  0  0  0  0  0
  -10.6513   -2.3071  -24.4546 C   0  0  0  0  0  0  0  0  0  0  0  0
   -9.5686   -3.2923  -24.1274 C   0  0  0  0  0  0  0  0  0  0  0  0
   -9.5406   -4.6292  -24.8071 C   0  0  0  0  0  0  0  0  0  0  0  0
  -10.5955   -4.9809  -25.8139 O   0  0  0  0  0  0  0  0  0  0  0  0
   -5.6519   -1.6418  -20.2083 C   0  0  0  0  0  0  0  0  0  0  0  0
   -6.0052   -1.7044  -18.7518 C   0  0  0  0  0  0  0  0  0  0  0  0
   -5.5288   -0.6319  -17.8177 N   0  0  0  0  0  0  0  0  0  0  0  0
   -4.6991    0.5033  -18.3400 C   0  0  0  0  0  0  0  0  0  0  0  0
   -4.3458    0.5660  -19.7964 C   0  0  0  0  0  0  0  0  0  0  0  0
   -3.5160    1.7013  -20.3188 C   0  0  0  0  0  0  0  0  0  0  0  0
   -3.1628    1.7638  -21.7752 C   0  0  0  0  0  0  0  0  0  0  0  0
   -3.6392    0.6913  -22.7094 C   0  0  0  0  0  0  0  0  0  0  0  0
   -4.4689   -0.4439  -22.1871 C   0  0  0  0  0  0  0  0  0  0  0  0
   -4.8222   -0.5066  -20.7306 C   0  0  0  0  0  0  0  0  0  0  0  0
   -8.4299   -6.9513  -25.1597 C   0  0  0  0  0  0  0  0  0  0  0  0
   -8.6468   -6.9957  -27.7483 N   0  0  0  0  0  0  0  0  0  0  0  0
   -7.8001   -7.0912  -26.5138 C   0  0  0  0  0  0  0  0  0  0  0  0
   -6.3234   -7.3265  -26.6335 O   0  0  0  0  0  0  0  0  0  0  0  0
   -9.6159   -6.8413  -27.6698 H   0  0  0  0  0  0  0  0  0  0  0  0
   -6.5380   -7.3549  -29.2227 C   0  0  0  0  0  0  0  0  0  0  0  0
   -8.0169   -7.1356  -29.1025 C   0  0  0  0  0  0  0  0  0  0  0  0
 34 35  1  0  0  0
 35 30  1  0  0  0
 30 31  1  0  0  0
 31 32  2  0  0  0
 31 29  1  0  0  0
 29  1  1  0  0  0
  1  2  1  0  0  0
  3  2  1  0  0  0
  3  4  1  0  0  0
  4  5  2  0  0  0
  4  6  1  0  0  0
  6 19  1  0  0  0
 19 20  2  0  0  0
 20 21  1  0  0  0
 21 22  2  0  0  0
 22 23  1  0  0  0
 23 24  2  0  0  0
 24 25  1  0  0  0
 25 26  2  0  0  0
 26 27  1  0  0  0
 27 28  2  0  0  0
  6  7  1  0  0  0
  7  8  1  0  0  0
  8  9  1  0  0  0
  3 10  1  0  0  0
 10 11  2  0  0  0
 11 12  1  0  0  0
 12 13  1  0  0  0
 12 14  2  0  0  0
 14 15  1  0  0  0
 15 16  2  0  0  0
 16 17  1  0  0  0
 17 18  2  0  0  0
 17  1  1  0  0  0
  8  3  1  0  0  0
 16 10  1  0  0  0
 28 19  1  0  0  0
 28 23  1  0  0  0
 30 33  1  0  0  0
M  END
> <minimizedAffinity>
-8.97252

> <CNNscore>
0.3151043952

> <CNNaffinity>
6.1310501099

> <CNN_VS>
1.9319208860

> <CNNaffinity_variance>
0.3176742196

$$$$



 35 39  0  0  0  0  0  0  0  0999 V2000
   -6.7693   -0.1903  -22.9499 N   0  0  0  0  0  0  0  0  0  0  0  0
   -7.2183    1.2116  -23.2380 C   0  0  0  0  0  0  0  0  0  0  0  0
   -8.6758    1.5069  -23.4342 C   0  0  0  0  0  0  0  0  0  0  0  0
  -10.0916    1.9519  -23.6522 C   0  0  0  0  0  0  0  0  0  0  0  0
  -11.2167    1.4942  -23.6847 O   0  0  0  0  0  0  0  0  0  0  0  0
  -10.0788    3.4300  -23.9076 N   0  0  0  0  0  0  0  0  0  0  0  0
   -8.6551    3.8984  -23.8473 C   0  0  0  0  0  0  0  0  0  0  0  0
   -7.7880    2.7099  -23.5548 C   0  0  0  0  0  0  0  0  0  0  0  0
   -6.2952    2.7222  -23.4084 C   0  0  0  0  0  0  0  0  0  0  0  0
   -9.6843    0.4002  -23.3423 C   0  0  0  0  0  0  0  0  0  0  0  0
  -11.1418    0.6955  -23.5385 C   0  0  0  0  0  0  0  0  0  0  0  0
  -12.1501   -0.4112  -23.4467 C   0  0  0  0  0  0  0  0  0  0  0  0
  -13.6077   -0.1159  -23.6429 Cl  0  0  0  0  0  0  0  0  0  0  0  0
  -11.7010   -1.8131  -23.1587 C   0  0  0  0  0  0  0  0  0  0  0  0
  -10.2436   -2.1084  -22.9625 C   0  0  0  0  0  0  0  0  0  0  0  0
   -9.2352   -1.0017  -23.0543 C   0  0  0  0  0  0  0  0  0  0  0  0
   -7.7776   -1.2970  -22.8581 C   0  0  0  0  0  0  0  0  0  0  0  0
   -7.3285   -2.6989  -22.5701 O   0  0  0  0  0  0  0  0  0  0  0  0
  -11.2789    4.2888  -24.1760 C   0  0  0  0  0  0  0  0  0  0  0  0
  -12.1402    4.7508  -23.0381 C   0  0  0  0  0  0  0  0  0  0  0  0
  -13.3404    5.6096  -23.3066 N   0  0  0  0  0  0  0  0  0  0  0  0
  -13.6793    6.0063  -24.7129 C   0  0  0  0  0  0  0  0  0  0  0  0
  -12.8180    5.5443  -25.8508 C   0  0  0  0  0  0  0  0  0  0  0  0
  -13.1569    5.9410  -27.2572 C   0  0  0  0  0  0  0  0  0  0  0  0
  -12.2956    5.4789  -28.3950 C   0  0  0  0  0  0  0  0  0  0  0  0
  -11.0954    4.6201  -28.1265 C   0  0  0  0  0  0  0  0  0  0  0  0
  -10.7565    4.2234  -26.7202 C   0  0  0  0  0  0  0  0  0  0  0  0
  -11.6178    4.6855  -25.5823 C   0  0  0  0  0  0  0  0  0  0  0  0
   -5.3117   -0.4856  -22.7537 C   0  0  0  0  0  0  0  0  0  0  0  0
   -5.3401   -0.1475  -20.1779 N   0  0  0  0  0  0  0  0  0  0  0  0
   -4.6228   -0.0568  -21.4921 C   0  0  0  0  0  0  0  0  0  0  0  0
   -3.2166    0.4627  -21.5448 O   0  0  0  0  0  0  0  0  0  0  0  0
   -6.2631   -0.4885  -20.1434 H   0  0  0  0  0  0  0  0  0  0  0  0
   -5.4129    0.3289  -17.6250 C   0  0  0  0  0  0  0  0  0  0  0  0
   -4.6513    0.2812  -18.9163 C   0  0  0  0  0  0  0  0  0  0  0  0
 34 35  1  0  0  0
 35 30  1  0  0  0
 30 31  1  0  0  0
 31 32  2  0  0  0
 31 29  1  0  0  0
 29  1  1  0  0  0
  1  2  1  0  0  0
  3  2  1  0  0  0
  3  4  1  0  0  0
  4  5  2  0  0  0
  4  6  1  0  0  0
  6 19  1  0  0  0
 19 20  2  0  0  0
 20 21  1  0  0  0
 21 22  2  0  0  0
 22 23  1  0  0  0
 23 24  2  0  0  0
 24 25  1  0  0  0
 25 26  2  0  0  0
 26 27  1  0  0  0
 27 28  2  0  0  0
  6  7  1  0  0  0
  7  8  1  0  0  0
  8  9  1  0  0  0
  3 10  1  0  0  0
 10 11  2  0  0  0
 11 12  1  0  0  0
 12 13  1  0  0  0
 12 14  2  0  0  0
 14 15  1  0  0  0
 15 16  2  0  0  0
 16 17  1  0  0  0
 17 18  2  0  0  0
 17  1  1  0  0  0
  8  3  1  0  0  0
 16 10  1  0  0  0
 28 19  1  0  0  0
 28 23  1  0  0  0
 30 33  1  0  0  0
M  END
> <minimizedAffinity>
-7.87911

> <CNNscore>
0.3083730638

> <CNNaffinity>
6.1558542252

> <CNN_VS>
1.8982995749

> <CNNaffinity_variance>
0.1004784107

$$$$



 35 39  0  0  0  0  0  0  0  0999 V2000
   -6.5913   -0.2820  -22.4093 N   0  0  0  0  0  0  0  0  0  0  0  0
   -6.9765    1.1083  -22.8201 C   0  0  0  0  0  0  0  0  0  0  0  0
   -8.3960    1.4127  -23.1972 C   0  0  0  0  0  0  0  0  0  0  0  0
   -9.7686    1.8649  -23.5991 C   0  0  0  0  0  0  0  0  0  0  0  0
  -10.8917    1.4218  -23.7362 O   0  0  0  0  0  0  0  0  0  0  0  0
   -9.6972    3.3265  -23.9285 N   0  0  0  0  0  0  0  0  0  0  0  0
   -8.2805    3.7777  -23.7302 C   0  0  0  0  0  0  0  0  0  0  0  0
   -7.4763    2.5949  -23.2782 C   0  0  0  0  0  0  0  0  0  0  0  0
   -6.0099    2.5944  -22.9627 C   0  0  0  0  0  0  0  0  0  0  0  0
   -9.4304    0.3268  -23.1636 C   0  0  0  0  0  0  0  0  0  0  0  0
  -10.8499    0.6312  -23.5408 C   0  0  0  0  0  0  0  0  0  0  0  0
  -11.8841   -0.4547  -23.5071 C   0  0  0  0  0  0  0  0  0  0  0  0
  -13.3037   -0.1503  -23.8843 Cl  0  0  0  0  0  0  0  0  0  0  0  0
  -11.4989   -1.8449  -23.0963 C   0  0  0  0  0  0  0  0  0  0  0  0
  -10.0794   -2.1494  -22.7192 C   0  0  0  0  0  0  0  0  0  0  0  0
   -9.0451   -1.0635  -22.7528 C   0  0  0  0  0  0  0  0  0  0  0  0
   -7.6255   -1.3679  -22.3756 C   0  0  0  0  0  0  0  0  0  0  0  0
   -7.2403   -2.7581  -21.9649 O   0  0  0  0  0  0  0  0  0  0  0  0
  -10.8417    4.1860  -24.3775 C   0  0  0  0  0  0  0  0  0  0  0  0
  -11.7654    4.7942  -23.3641 C   0  0  0  0  0  0  0  0  0  0  0  0
  -12.9098    5.6538  -23.8130 N   0  0  0  0  0  0  0  0  0  0  0  0
  -13.1305    5.9051  -25.2753 C   0  0  0  0  0  0  0  0  0  0  0  0
  -12.2067    5.2968  -26.2886 C   0  0  0  0  0  0  0  0  0  0  0  0
  -12.4274    5.5482  -27.7509 C   0  0  0  0  0  0  0  0  0  0  0  0
  -11.5036    4.9399  -28.7641 C   0  0  0  0  0  0  0  0  0  0  0  0
  -10.3592    4.0804  -28.3152 C   0  0  0  0  0  0  0  0  0  0  0  0
  -10.1386    3.8291  -26.8530 C   0  0  0  0  0  0  0  0  0  0  0  0
  -11.0623    4.4373  -25.8397 C   0  0  0  0  0  0  0  0  0  0  0  0
   -5.1717   -0.5864  -22.0321 C   0  0  0  0  0  0  0  0  0  0  0  0
   -3.3765    1.0033  -21.0321 N   0  0  0  0  0  0  0  0  0  0  0  0
   -4.5500    0.0879  -20.8452 C   0  0  0  0  0  0  0  0  0  0  0  0
   -5.1018   -0.1532  -19.4713 O   0  0  0  0  0  0  0  0  0  0  0  0
   -3.0143    1.1616  -21.9338 H   0  0  0  0  0  0  0  0  0  0  0  0
   -1.3106    2.0813  -19.8831 C   0  0  0  0  0  0  0  0  0  0  0  0
   -2.7548    1.6776  -19.8452 C   0  0  0  0  0  0  0  0  0  0  0  0
 34 35  1  0  0  0
 35 30  1  0  0  0
 30 31  1  0  0  0
 31 32  2  0  0  0
 31 29  1  0  0  0
 29  1  1  0  0  0
  1  2  1  0  0  0
  3  2  1  0  0  0
  3  4  1  0  0  0
  4  5  2  0  0  0
  4  6  1  0  0  0
  6 19  1  0  0  0
 19 20  2  0  0  0
 20 21  1  0  0  0
 21 22  2  0  0  0
 22 23  1  0  0  0
 23 24  2  0  0  0
 24 25  1  0  0  0
 25 26  2  0  0  0
 26 27  1  0  0  0
 27 28  2  0  0  0
  6  7  1  0  0  0
  7  8  1  0  0  0
  8  9  1  0  0  0
  3 10  1  0  0  0
 10 11  2  0  0  0
 11 12  1  0  0  0
 12 13  1  0  0  0
 12 14  2  0  0  0
 14 15  1  0  0  0
 15 16  2  0  0  0
 16 17  1  0  0  0
 17 18  2  0  0  0
 17  1  1  0  0  0
  8  3  1  0  0  0
 16 10  1  0  0  0
 28 19  1  0  0  0
 28 23  1  0  0  0
 30 33  1  0  0  0
M  END
> <minimizedAffinity>
-7.76678

> <CNNscore>
0.2855556905

> <CNNaffinity>
5.9275889397

> <CNN_VS>
1.6926567554

> <CNNaffinity_variance>
0.1199387908

$$$$
