


 42 47  0  0  0  0  0  0  0  0999 V2000
    5.3683    1.2357   21.0715 N   0  0  0  0  0  0  0  0  0  0  0  0
    6.2292    0.0491   21.3890 C   0  0  0  0  0  0  0  0  0  0  0  0
    7.5953    0.2489   21.9751 C   0  0  0  0  0  0  0  0  0  0  0  0
    8.9755    0.2924   22.5611 C   0  0  0  0  0  0  0  0  0  0  0  0
    9.8000    1.0995   22.9420 O   0  0  0  0  0  0  0  0  0  0  0  0
    9.4604   -1.1192   22.7104 N   0  0  0  0  0  0  0  0  0  0  0  0
    8.3799   -2.0351   22.2168 C   0  0  0  0  0  0  0  0  0  0  0  0
    7.2273   -1.1896   21.7624 C   0  0  0  0  0  0  0  0  0  0  0  0
    8.1007    1.6355   22.2439 C   0  0  0  0  0  0  0  0  0  0  0  0
    9.4668    1.8354   22.8301 C   0  0  0  0  0  0  0  0  0  0  0  0
    9.9720    3.2219   23.0989 C   0  0  0  0  0  0  0  0  0  0  0  0
   11.3383    3.4218   23.6851 Cl  0  0  0  0  0  0  0  0  0  0  0  0
    9.1111    4.4085   22.7815 C   0  0  0  0  0  0  0  0  0  0  0  0
    7.7450    4.2086   22.1953 C   0  0  0  0  0  0  0  0  0  0  0  0
    7.2398    2.8221   21.9265 C   0  0  0  0  0  0  0  0  0  0  0  0
    5.8736    2.6222   21.3403 C   0  0  0  0  0  0  0  0  0  0  0  0
    5.0127    3.8088   21.0228 O   0  0  0  0  0  0  0  0  0  0  0  0
   10.7920   -1.5408   23.2574 C   0  0  0  0  0  0  0  0  0  0  0  0
   12.0476   -1.2271   22.4992 C   0  0  0  0  0  0  0  0  0  0  0  0
   13.3792   -1.6487   23.0461 N   0  0  0  0  0  0  0  0  0  0  0  0
   13.4551   -2.3840   24.3513 C   0  0  0  0  0  0  0  0  0  0  0  0
   12.1994   -2.6977   25.1095 C   0  0  0  0  0  0  0  0  0  0  0  0
   12.2753   -3.4330   26.4148 C   0  0  0  0  0  0  0  0  0  0  0  0
   11.0196   -3.7467   27.1730 C   0  0  0  0  0  0  0  0  0  0  0  0
    9.6881   -3.3251   26.6260 C   0  0  0  0  0  0  0  0  0  0  0  0
    9.6122   -2.5898   25.3208 C   0  0  0  0  0  0  0  0  0  0  0  0
   10.8678   -2.2761   24.5626 C   0  0  0  0  0  0  0  0  0  0  0  0
    4.0021    1.0358   20.4853 C   0  0  0  0  0  0  0  0  0  0  0  0
    1.6627    2.4062   23.3834 C   0  0  0  0  0  0  0  0  0  0  0  0
    2.8708    1.8809   22.6661 N   0  0  0  0  0  0  0  0  0  0  0  0
    2.7940    1.5610   21.2026 C   0  0  0  0  0  0  0  0  0  0  0  0
    1.5090    1.7664   20.4564 O   0  0  0  0  0  0  0  0  0  0  0  0
    3.7141    1.7461   23.1558 H   0  0  0  0  0  0  0  0  0  0  0  0
    5.9337   -1.6940   21.1948 C   0  0  0  0  0  0  0  0  0  0  0  0
    5.0824   -2.6377   21.9915 N   0  0  0  0  0  0  0  0  0  0  0  0
    4.1018   -2.5537   21.9700 H   0  0  0  0  0  0  0  0  0  0  0  0
    5.7253   -3.7095   22.8209 C   0  0  0  0  0  0  0  0  0  0  0  0
    6.0782   -3.6063   24.2752 C   0  0  0  0  0  0  0  0  0  0  0  0
    6.6991   -4.9057   24.6947 N   0  0  0  0  0  0  0  0  0  0  0  0
    6.7299   -5.8120   23.4998 C   0  0  0  0  0  0  0  0  0  0  0  0
    7.2680   -7.2118   23.4686 C   0  0  0  0  0  0  0  0  0  0  0  0
    6.1280   -5.0727   22.3418 S   0  0  0  0  0  0  0  0  0  0  0  0
 29 30  1  0  0  0
 30 31  1  0  0  0
 31 32  2  0  0  0
 31 28  1  0  0  0
 28  1  1  0  0  0
  1  2  1  0  0  0
  3  2  1  0  0  0
  3  4  1  0  0  0
  4  5  2  0  0  0
  4  6  1  0  0  0
  6 18  1  0  0  0
 18 19  2  0  0  0
 19 20  1  0  0  0
 20 21  2  0  0  0
 21 22  1  0  0  0
 22 23  2  0  0  0
 23 24  1  0  0  0
 24 25  2  0  0  0
 25 26  1  0  0  0
 26 27  2  0  0  0
  6  7  1  0  0  0
  7  8  1  0  0  0
  8 34  1  0  0  0
 34 35  1  0  0  0
 35 37  1  0  0  0
 37 38  2  0  0  0
 38 39  1  0  0  0
 39 40  2  0  0  0
 40 41  1  0  0  0
 40 42  1  0  0  0
  3  9  1  0  0  0
  9 10  2  0  0  0
 10 11  1  0  0  0
 11 12  1  0  0  0
 11 13  2  0  0  0
 13 14  1  0  0  0
 14 15  2  0  0  0
 15 16  1  0  0  0
 16 17  2  0  0  0
 16  1  1  0  0  0
  8  3  1  0  0  0
 42 37  1  0  0  0
 15  9  1  0  0  0
 27 18  1  0  0  0
 27 22  1  0  0  0
 30 33  1  0  0  0
 35 36  1  0  0  0
M  END
> <minimizedAffinity>
-7.73559

> <CNNscore>
0.3010274172

> <CNNaffinity>
7.0881338120

> <CNN_VS>
2.1337225437

> <CNNaffinity_variance>
0.0848878175

$$$$



 42 47  0  0  0  0  0  0  0  0999 V2000
    6.4074    1.1752   21.2149 N   0  0  0  0  0  0  0  0  0  0  0  0
    7.7208    1.1689   21.9394 C   0  0  0  0  0  0  0  0  0  0  0  0
    8.2331   -0.1006   22.5524 C   0  0  0  0  0  0  0  0  0  0  0  0
    8.8702   -1.2873   23.2126 C   0  0  0  0  0  0  0  0  0  0  0  0
    8.6613   -2.4686   23.4058 O   0  0  0  0  0  0  0  0  0  0  0  0
   10.1709   -0.8415   23.8121 N   0  0  0  0  0  0  0  0  0  0  0  0
   10.3377    0.6208   23.5225 C   0  0  0  0  0  0  0  0  0  0  0  0
    9.1401    1.0786   22.7439 C   0  0  0  0  0  0  0  0  0  0  0  0
    7.4319   -1.3639   22.4411 C   0  0  0  0  0  0  0  0  0  0  0  0
    7.9442   -2.6334   23.0542 C   0  0  0  0  0  0  0  0  0  0  0  0
    7.1430   -3.8966   22.9428 C   0  0  0  0  0  0  0  0  0  0  0  0
    7.6553   -5.1662   23.5559 Cl  0  0  0  0  0  0  0  0  0  0  0  0
    5.8296   -3.8903   22.2183 C   0  0  0  0  0  0  0  0  0  0  0  0
    5.3173   -2.6208   21.6052 C   0  0  0  0  0  0  0  0  0  0  0  0
    6.1185   -1.3576   21.7166 C   0  0  0  0  0  0  0  0  0  0  0  0
    5.6062   -0.0880   21.1035 C   0  0  0  0  0  0  0  0  0  0  0  0
    4.2928   -0.0817   20.3791 O   0  0  0  0  0  0  0  0  0  0  0  0
   11.1354   -1.7061   24.5685 C   0  0  0  0  0  0  0  0  0  0  0  0
   12.5794   -1.7498   24.1646 C   0  0  0  0  0  0  0  0  0  0  0  0
   13.5439   -2.6145   24.9210 N   0  0  0  0  0  0  0  0  0  0  0  0
   13.0645   -3.4354   26.0812 C   0  0  0  0  0  0  0  0  0  0  0  0
   11.6205   -3.3918   26.4850 C   0  0  0  0  0  0  0  0  0  0  0  0
   11.1411   -4.2128   27.6453 C   0  0  0  0  0  0  0  0  0  0  0  0
    9.6971   -4.1691   28.0491 C   0  0  0  0  0  0  0  0  0  0  0  0
    8.7326   -3.3044   27.2927 C   0  0  0  0  0  0  0  0  0  0  0  0
    9.2120   -2.4835   26.1325 C   0  0  0  0  0  0  0  0  0  0  0  0
   10.6560   -2.5271   25.7287 C   0  0  0  0  0  0  0  0  0  0  0  0
    5.8952    2.4448   20.6018 C   0  0  0  0  0  0  0  0  0  0  0  0
    4.9870    5.8527   22.4215 C   0  0  0  0  0  0  0  0  0  0  0  0
    5.7072    4.8473   21.5727 N   0  0  0  0  0  0  0  0  0  0  0  0
    5.1750    3.4502   21.4506 C   0  0  0  0  0  0  0  0  0  0  0  0
    3.9226    3.0585   22.1774 O   0  0  0  0  0  0  0  0  0  0  0  0
    6.5292    5.1043   21.0957 H   0  0  0  0  0  0  0  0  0  0  0  0
    8.8929    2.4713   22.2446 C   0  0  0  0  0  0  0  0  0  0  0  0
    9.3024    3.6502   23.0767 N   0  0  0  0  0  0  0  0  0  0  0  0
    8.8048    3.8702   23.8972 H   0  0  0  0  0  0  0  0  0  0  0  0
   10.4701    4.4939   22.6587 C   0  0  0  0  0  0  0  0  0  0  0  0
   11.8157    3.9874   22.2313 C   0  0  0  0  0  0  0  0  0  0  0  0
   12.6743    5.1727   21.9033 N   0  0  0  0  0  0  0  0  0  0  0  0
   11.8594    6.4119   22.1280 C   0  0  0  0  0  0  0  0  0  0  0  0
   12.3251    7.8228   21.9220 C   0  0  0  0  0  0  0  0  0  0  0  0
   10.4971    5.9923   22.5949 S   0  0  0  0  0  0  0  0  0  0  0  0
 29 30  1  0  0  0
 30 31  1  0  0  0
 31 32  2  0  0  0
 31 28  1  0  0  0
 28  1  1  0  0  0
  1  2  1  0  0  0
  3  2  1  0  0  0
  3  4  1  0  0  0
  4  5  2  0  0  0
  4  6  1  0  0  0
  6 18  1  0  0  0
 18 19  2  0  0  0
 19 20  1  0  0  0
 20 21  2  0  0  0
 21 22  1  0  0  0
 22 23  2  0  0  0
 23 24  1  0  0  0
 24 25  2  0  0  0
 25 26  1  0  0  0
 26 27  2  0  0  0
  6  7  1  0  0  0
  7  8  1  0  0  0
  8 34  1  0  0  0
 34 35  1  0  0  0
 35 37  1  0  0  0
 37 38  2  0  0  0
 38 39  1  0  0  0
 39 40  2  0  0  0
 40 41  1  0  0  0
 40 42  1  0  0  0
  3  9  1  0  0  0
  9 10  2  0  0  0
 10 11  1  0  0  0
 11 12  1  0  0  0
 11 13  2  0  0  0
 13 14  1  0  0  0
 14 15  2  0  0  0
 15 16  1  0  0  0
 16 17  2  0  0  0
 16  1  1  0  0  0
  8  3  1  0  0  0
 42 37  1  0  0  0
 15  9  1  0  0  0
 27 18  1  0  0  0
 27 22  1  0  0  0
 30 33  1  0  0  0
 35 36  1  0  0  0
M  END
> <minimizedAffinity>
-8.19378

> <CNNscore>
0.2784345150

> <CNNaffinity>
7.1141524315

> <CNN_VS>
1.9808255434

> <CNNaffinity_variance>
0.1921310127

$$$$



 42 47  0  0  0  0  0  0  0  0999 V2000
    9.7783    0.5576   22.7641 N   0  0  0  0  0  0  0  0  0  0  0  0
    8.6302   -0.3983   22.6296 C   0  0  0  0  0  0  0  0  0  0  0  0
    8.6196   -1.6736   23.4193 C   0  0  0  0  0  0  0  0  0  0  0  0
    8.4711   -2.9803   24.1407 C   0  0  0  0  0  0  0  0  0  0  0  0
    9.0617   -3.6702   24.9478 O   0  0  0  0  0  0  0  0  0  0  0  0
    7.1781   -3.6049   23.7071 N   0  0  0  0  0  0  0  0  0  0  0  0
    6.5275   -2.6842   22.7176 C   0  0  0  0  0  0  0  0  0  0  0  0
    7.4184   -1.4906   22.5398 C   0  0  0  0  0  0  0  0  0  0  0  0
    9.7572   -1.9930   24.3434 C   0  0  0  0  0  0  0  0  0  0  0  0
    9.7465   -3.2682   25.1331 C   0  0  0  0  0  0  0  0  0  0  0  0
   10.8841   -3.5876   26.0572 C   0  0  0  0  0  0  0  0  0  0  0  0
   10.8735   -4.8629   26.8469 Cl  0  0  0  0  0  0  0  0  0  0  0  0
   12.0322   -2.6317   26.1916 C   0  0  0  0  0  0  0  0  0  0  0  0
   12.0428   -1.3565   25.4020 C   0  0  0  0  0  0  0  0  0  0  0  0
   10.9053   -1.0371   24.4779 C   0  0  0  0  0  0  0  0  0  0  0  0
   10.9159    0.2382   23.6882 C   0  0  0  0  0  0  0  0  0  0  0  0
   12.0640    1.1941   23.8226 O   0  0  0  0  0  0  0  0  0  0  0  0
    6.6317   -4.9194   24.1799 C   0  0  0  0  0  0  0  0  0  0  0  0
    7.2141   -6.2024   23.6655 C   0  0  0  0  0  0  0  0  0  0  0  0
    6.6677   -7.5169   24.1383 N   0  0  0  0  0  0  0  0  0  0  0  0
    5.5389   -7.5483   25.1256 C   0  0  0  0  0  0  0  0  0  0  0  0
    4.9565   -6.2653   25.6400 C   0  0  0  0  0  0  0  0  0  0  0  0
    3.8276   -6.2968   26.6273 C   0  0  0  0  0  0  0  0  0  0  0  0
    3.2452   -5.0137   27.1417 C   0  0  0  0  0  0  0  0  0  0  0  0
    3.7916   -3.6992   26.6689 C   0  0  0  0  0  0  0  0  0  0  0  0
    4.9204   -3.6678   25.6816 C   0  0  0  0  0  0  0  0  0  0  0  0
    5.5029   -4.9508   25.1672 C   0  0  0  0  0  0  0  0  0  0  0  0
    9.7889    1.8329   21.9744 C   0  0  0  0  0  0  0  0  0  0  0  0
    8.3987    5.2726   23.3835 C   0  0  0  0  0  0  0  0  0  0  0  0
    9.3465    4.1646   23.0315 N   0  0  0  0  0  0  0  0  0  0  0  0
    8.8411    2.9409   22.3264 C   0  0  0  0  0  0  0  0  0  0  0  0
    7.3878    2.8252   21.9734 O   0  0  0  0  0  0  0  0  0  0  0  0
   10.3003    4.2405   23.2632 H   0  0  0  0  0  0  0  0  0  0  0  0
    7.1543   -0.3196   21.6403 C   0  0  0  0  0  0  0  0  0  0  0  0
    6.9544   -0.5339   20.1693 N   0  0  0  0  0  0  0  0  0  0  0  0
    7.5262   -1.1704   19.6823 H   0  0  0  0  0  0  0  0  0  0  0  0
    5.8831    0.2216   19.4400 C   0  0  0  0  0  0  0  0  0  0  0  0
    5.7104    0.2905   17.9516 C   0  0  0  0  0  0  0  0  0  0  0  0
    4.5171    1.1523   17.6629 N   0  0  0  0  0  0  0  0  0  0  0  0
    3.9523    1.6159   18.9729 C   0  0  0  0  0  0  0  0  0  0  0  0
    2.7536    2.4995   19.1530 C   0  0  0  0  0  0  0  0  0  0  0  0
    4.7965    1.0407   20.0712 S   0  0  0  0  0  0  0  0  0  0  0  0
 29 30  1  0  0  0
 30 31  1  0  0  0
 31 32  2  0  0  0
 31 28  1  0  0  0
 28  1  1  0  0  0
  1  2  1  0  0  0
  3  2  1  0  0  0
  3  4  1  0  0  0
  4  5  2  0  0  0
  4  6  1  0  0  0
  6 18  1  0  0  0
 18 19  2  0  0  0
 19 20  1  0  0  0
 20 21  2  0  0  0
 21 22  1  0  0  0
 22 23  2  0  0  0
 23 24  1  0  0  0
 24 25  2  0  0  0
 25 26  1  0  0  0
 26 27  2  0  0  0
  6  7  1  0  0  0
  7  8  1  0  0  0
  8 34  1  0  0  0
 34 35  1  0  0  0
 35 37  1  0  0  0
 37 38  2  0  0  0
 38 39  1  0  0  0
 39 40  2  0  0  0
 40 41  1  0  0  0
 40 42  1  0  0  0
  3  9  1  0  0  0
  9 10  2  0  0  0
 10 11  1  0  0  0
 11 12  1  0  0  0
 11 13  2  0  0  0
 13 14  1  0  0  0
 14 15  2  0  0  0
 15 16  1  0  0  0
 16 17  2  0  0  0
 16  1  1  0  0  0
  8  3  1  0  0  0
 42 37  1  0  0  0
 15  9  1  0  0  0
 27 18  1  0  0  0
 27 22  1  0  0  0
 30 33  1  0  0  0
 35 36  1  0  0  0
M  END
> <minimizedAffinity>
-9.47107

> <CNNscore>
0.2742891014

> <CNNaffinity>
7.0434370041

> <CNN_VS>
1.9319380522

> <CNNaffinity_variance>
0.1627934724

$$$$



 42 47  0  0  0  0  0  0  0  0999 V2000
   10.1318    0.7205   23.1909 N   0  0  0  0  0  0  0  0  0  0  0  0
    8.7613    0.1523   23.4121 C   0  0  0  0  0  0  0  0  0  0  0  0
    8.5741   -1.0185   24.3308 C   0  0  0  0  0  0  0  0  0  0  0  0
    8.2338   -2.1809   25.2157 C   0  0  0  0  0  0  0  0  0  0  0  0
    8.7760   -2.9763   25.9572 O   0  0  0  0  0  0  0  0  0  0  0  0
    6.7527   -2.4049   25.1377 N   0  0  0  0  0  0  0  0  0  0  0  0
    6.1776   -1.3809   24.2046 C   0  0  0  0  0  0  0  0  0  0  0  0
    7.3033   -0.5241   23.7059 C   0  0  0  0  0  0  0  0  0  0  0  0
    9.7575   -1.6213   25.0283 C   0  0  0  0  0  0  0  0  0  0  0  0
    9.5703   -2.7921   25.9470 C   0  0  0  0  0  0  0  0  0  0  0  0
   10.7536   -3.3948   26.6445 C   0  0  0  0  0  0  0  0  0  0  0  0
   10.5664   -4.5657   27.5632 Cl  0  0  0  0  0  0  0  0  0  0  0  0
   12.1241   -2.8266   26.4233 C   0  0  0  0  0  0  0  0  0  0  0  0
   12.3112   -1.6557   25.5046 C   0  0  0  0  0  0  0  0  0  0  0  0
   11.1279   -1.0531   24.8071 C   0  0  0  0  0  0  0  0  0  0  0  0
   11.3151    0.1179   23.8884 C   0  0  0  0  0  0  0  0  0  0  0  0
   12.6856    0.6861   23.6672 O   0  0  0  0  0  0  0  0  0  0  0  0
    5.9820   -3.4665   25.8651 C   0  0  0  0  0  0  0  0  0  0  0  0
    5.6125   -4.7393   25.1627 C   0  0  0  0  0  0  0  0  0  0  0  0
    4.8418   -5.8009   25.8902 N   0  0  0  0  0  0  0  0  0  0  0  0
    4.4407   -5.5896   27.3200 C   0  0  0  0  0  0  0  0  0  0  0  0
    4.8103   -4.3167   28.0224 C   0  0  0  0  0  0  0  0  0  0  0  0
    4.4091   -4.1055   29.4523 C   0  0  0  0  0  0  0  0  0  0  0  0
    4.7787   -2.8326   30.1546 C   0  0  0  0  0  0  0  0  0  0  0  0
    5.5494   -1.7711   29.4272 C   0  0  0  0  0  0  0  0  0  0  0  0
    5.9505   -1.9823   27.9974 C   0  0  0  0  0  0  0  0  0  0  0  0
    5.5809   -3.2552   27.2950 C   0  0  0  0  0  0  0  0  0  0  0  0
   10.3189    1.8914   22.2722 C   0  0  0  0  0  0  0  0  0  0  0  0
    9.5924    5.6128   23.4441 C   0  0  0  0  0  0  0  0  0  0  0  0
    9.3861    4.2397   22.8766 N   0  0  0  0  0  0  0  0  0  0  0  0
   10.5252    3.2645   22.8397 C   0  0  0  0  0  0  0  0  0  0  0  0
   11.8707    3.6624   23.3703 O   0  0  0  0  0  0  0  0  0  0  0  0
    8.5031    3.9786   22.5283 H   0  0  0  0  0  0  0  0  0  0  0  0
    7.1798    0.6253   22.7501 C   0  0  0  0  0  0  0  0  0  0  0  0
    5.8902    0.8588   22.0205 N   0  0  0  0  0  0  0  0  0  0  0  0
    5.3302    0.0944   21.7536 H   0  0  0  0  0  0  0  0  0  0  0  0
    5.4537    2.2571   21.6975 C   0  0  0  0  0  0  0  0  0  0  0  0
    4.1013    2.6641   21.1922 C   0  0  0  0  0  0  0  0  0  0  0  0
    4.1049    4.1524   21.0056 N   0  0  0  0  0  0  0  0  0  0  0  0
    5.4595    4.6653   21.3954 C   0  0  0  0  0  0  0  0  0  0  0  0
    5.9026    6.0980   21.3633 C   0  0  0  0  0  0  0  0  0  0  0  0
    6.2931    3.4939   21.8231 S   0  0  0  0  0  0  0  0  0  0  0  0
 29 30  1  0  0  0
 30 31  1  0  0  0
 31 32  2  0  0  0
 31 28  1  0  0  0
 28  1  1  0  0  0
  1  2  1  0  0  0
  3  2  1  0  0  0
  3  4  1  0  0  0
  4  5  2  0  0  0
  4  6  1  0  0  0
  6 18  1  0  0  0
 18 19  2  0  0  0
 19 20  1  0  0  0
 20 21  2  0  0  0
 21 22  1  0  0  0
 22 23  2  0  0  0
 23 24  1  0  0  0
 24 25  2  0  0  0
 25 26  1  0  0  0
 26 27  2  0  0  0
  6  7  1  0  0  0
  7  8  1  0  0  0
  8 34  1  0  0  0
 34 35  1  0  0  0
 35 37  1  0  0  0
 37 38  2  0  0  0
 38 39  1  0  0  0
 39 40  2  0  0  0
 40 41  1  0  0  0
 40 42  1  0  0  0
  3  9  1  0  0  0
  9 10  2  0  0  0
 10 11  1  0  0  0
 11 12  1  0  0  0
 11 13  2  0  0  0
 13 14  1  0  0  0
 14 15  2  0  0  0
 15 16  1  0  0  0
 16 17  2  0  0  0
 16  1  1  0  0  0
  8  3  1  0  0  0
 42 37  1  0  0  0
 15  9  1  0  0  0
 27 18  1  0  0  0
 27 22  1  0  0  0
 30 33  1  0  0  0
 35 36  1  0  0  0
M  END
> <minimizedAffinity>
-8.00471

> <CNNscore>
0.2123820782

> <CNNaffinity>
6.8095383644

> <CNN_VS>
1.4462238550

> <CNNaffinity_variance>
0.2516888976

$$$$



 42 47  0  0  0  0  0  0  0  0999 V2000
    6.8571   -3.3253   23.5079 N   0  0  0  0  0  0  0  0  0  0  0  0
    7.0694   -1.9397   22.9740 C   0  0  0  0  0  0  0  0  0  0  0  0
    8.3341   -1.1988   23.2926 C   0  0  0  0  0  0  0  0  0  0  0  0
    9.5412   -0.3394   23.5258 C   0  0  0  0  0  0  0  0  0  0  0  0
   10.6102   -0.3728   24.1023 O   0  0  0  0  0  0  0  0  0  0  0  0
    9.3297    0.9613   22.8092 N   0  0  0  0  0  0  0  0  0  0  0  0
    7.9918    0.9057   22.1330 C   0  0  0  0  0  0  0  0  0  0  0  0
    7.3766   -0.4292   22.4318 C   0  0  0  0  0  0  0  0  0  0  0  0
    9.3866   -1.8435   24.1451 C   0  0  0  0  0  0  0  0  0  0  0  0
   10.6513   -1.1026   24.4637 C   0  0  0  0  0  0  0  0  0  0  0  0
   11.7037   -1.7473   25.3162 C   0  0  0  0  0  0  0  0  0  0  0  0
   12.9685   -1.0064   25.6348 Cl  0  0  0  0  0  0  0  0  0  0  0  0
   11.4914   -3.1329   25.8500 C   0  0  0  0  0  0  0  0  0  0  0  0
   10.2267   -3.8738   25.5314 C   0  0  0  0  0  0  0  0  0  0  0  0
    9.1743   -3.2291   24.6790 C   0  0  0  0  0  0  0  0  0  0  0  0
    7.9095   -3.9700   24.3603 C   0  0  0  0  0  0  0  0  0  0  0  0
    7.6972   -5.3556   24.8942 O   0  0  0  0  0  0  0  0  0  0  0  0
   10.2878    2.1149   22.7747 C   0  0  0  0  0  0  0  0  0  0  0  0
   11.7518    1.8678   22.5610 C   0  0  0  0  0  0  0  0  0  0  0  0
   12.7099    3.0214   22.5266 N   0  0  0  0  0  0  0  0  0  0  0  0
   12.2040    4.4221   22.7058 C   0  0  0  0  0  0  0  0  0  0  0  0
   10.7400    4.6692   22.9195 C   0  0  0  0  0  0  0  0  0  0  0  0
   10.2341    6.0699   23.0987 C   0  0  0  0  0  0  0  0  0  0  0  0
    8.7700    6.3169   23.3124 C   0  0  0  0  0  0  0  0  0  0  0  0
    7.8119    5.1633   23.3469 C   0  0  0  0  0  0  0  0  0  0  0  0
    8.3178    3.7626   23.1676 C   0  0  0  0  0  0  0  0  0  0  0  0
    9.7819    3.5156   22.9539 C   0  0  0  0  0  0  0  0  0  0  0  0
    5.5923   -4.0662   23.1892 C   0  0  0  0  0  0  0  0  0  0  0  0
    4.8899   -7.5424   24.9704 C   0  0  0  0  0  0  0  0  0  0  0  0
    4.9738   -6.0641   24.7306 N   0  0  0  0  0  0  0  0  0  0  0  0
    5.5084   -5.5445   23.4290 C   0  0  0  0  0  0  0  0  0  0  0  0
    5.9592   -6.5034   22.3671 O   0  0  0  0  0  0  0  0  0  0  0  0
    4.6780   -5.4348   25.4275 H   0  0  0  0  0  0  0  0  0  0  0  0
    6.0386   -0.9102   21.9538 C   0  0  0  0  0  0  0  0  0  0  0  0
    5.7894   -1.0978   20.4866 N   0  0  0  0  0  0  0  0  0  0  0  0
    6.0776   -1.9266   20.0404 H   0  0  0  0  0  0  0  0  0  0  0  0
    5.1010   -0.0225   19.6992 C   0  0  0  0  0  0  0  0  0  0  0  0
    5.3041    0.2706   18.2423 C   0  0  0  0  0  0  0  0  0  0  0  0
    4.4173    1.4227   17.8732 N   0  0  0  0  0  0  0  0  0  0  0  0
    3.6661    1.8416   19.1021 C   0  0  0  0  0  0  0  0  0  0  0  0
    2.6677    2.9578   19.1875 C   0  0  0  0  0  0  0  0  0  0  0  0
    4.0887    0.9485   20.2307 S   0  0  0  0  0  0  0  0  0  0  0  0
 29 30  1  0  0  0
 30 31  1  0  0  0
 31 32  2  0  0  0
 31 28  1  0  0  0
 28  1  1  0  0  0
  1  2  1  0  0  0
  3  2  1  0  0  0
  3  4  1  0  0  0
  4  5  2  0  0  0
  4  6  1  0  0  0
  6 18  1  0  0  0
 18 19  2  0  0  0
 19 20  1  0  0  0
 20 21  2  0  0  0
 21 22  1  0  0  0
 22 23  2  0  0  0
 23 24  1  0  0  0
 24 25  2  0  0  0
 25 26  1  0  0  0
 26 27  2  0  0  0
  6  7  1  0  0  0
  7  8  1  0  0  0
  8 34  1  0  0  0
 34 35  1  0  0  0
 35 37  1  0  0  0
 37 38  2  0  0  0
 38 39  1  0  0  0
 39 40  2  0  0  0
 40 41  1  0  0  0
 40 42  1  0  0  0
  3  9  1  0  0  0
  9 10  2  0  0  0
 10 11  1  0  0  0
 11 12  1  0  0  0
 11 13  2  0  0  0
 13 14  1  0  0  0
 14 15  2  0  0  0
 15 16  1  0  0  0
 16 17  2  0  0  0
 16  1  1  0  0  0
  8  3  1  0  0  0
 42 37  1  0  0  0
 15  9  1  0  0  0
 27 18  1  0  0  0
 27 22  1  0  0  0
 30 33  1  0  0  0
 35 36  1  0  0  0
M  END
> <minimizedAffinity>
-8.99731

> <CNNscore>
0.1890075207

> <CNNaffinity>
6.8747506142

> <CNN_VS>
1.2993795872

> <CNNaffinity_variance>
0.2091213167

$$$$



 42 47  0  0  0  0  0  0  0  0999 V2000
    9.6931    0.6922   22.6481 N   0  0  0  0  0  0  0  0  0  0  0  0
    8.5790   -0.3017   22.5037 C   0  0  0  0  0  0  0  0  0  0  0  0
    8.6019   -1.5746   23.2970 C   0  0  0  0  0  0  0  0  0  0  0  0
    8.4888   -2.8836   24.0206 C   0  0  0  0  0  0  0  0  0  0  0  0
    9.0929   -3.5514   24.8363 O   0  0  0  0  0  0  0  0  0  0  0  0
    7.2222   -3.5520   23.5745 N   0  0  0  0  0  0  0  0  0  0  0  0
    6.5525   -2.6561   22.5751 C   0  0  0  0  0  0  0  0  0  0  0  0
    7.4052   -1.4340   22.4036 C   0  0  0  0  0  0  0  0  0  0  0  0
    9.7390   -1.8535   24.2347 C   0  0  0  0  0  0  0  0  0  0  0  0
    9.7619   -3.1264   25.0280 C   0  0  0  0  0  0  0  0  0  0  0  0
   10.8989   -3.4053   25.9657 C   0  0  0  0  0  0  0  0  0  0  0  0
   10.9219   -4.6782   26.7590 Cl  0  0  0  0  0  0  0  0  0  0  0  0
   12.0131   -2.4114   26.1101 C   0  0  0  0  0  0  0  0  0  0  0  0
   11.9902   -1.1386   25.3168 C   0  0  0  0  0  0  0  0  0  0  0  0
   10.8531   -0.8596   24.3791 C   0  0  0  0  0  0  0  0  0  0  0  0
   10.8302    0.4132   23.5858 C   0  0  0  0  0  0  0  0  0  0  0  0
   11.9443    1.4071   23.7302 O   0  0  0  0  0  0  0  0  0  0  0  0
    6.7145   -4.8827   24.0451 C   0  0  0  0  0  0  0  0  0  0  0  0
    7.2573   -6.1467   23.4470 C   0  0  0  0  0  0  0  0  0  0  0  0
    6.7496   -7.4774   23.9176 N   0  0  0  0  0  0  0  0  0  0  0  0
    5.6992   -7.5441   24.9863 C   0  0  0  0  0  0  0  0  0  0  0  0
    5.1564   -6.2800   25.5844 C   0  0  0  0  0  0  0  0  0  0  0  0
    4.1059   -6.3467   26.6531 C   0  0  0  0  0  0  0  0  0  0  0  0
    3.5632   -5.0827   27.2511 C   0  0  0  0  0  0  0  0  0  0  0  0
    4.0709   -3.7520   26.7805 C   0  0  0  0  0  0  0  0  0  0  0  0
    5.1214   -3.6853   25.7118 C   0  0  0  0  0  0  0  0  0  0  0  0
    5.6641   -4.9494   25.1138 C   0  0  0  0  0  0  0  0  0  0  0  0
    9.6702    1.9651   21.8548 C   0  0  0  0  0  0  0  0  0  0  0  0
   10.7888    5.5601   23.1096 C   0  0  0  0  0  0  0  0  0  0  0  0
   10.8054    4.2366   22.4037 N   0  0  0  0  0  0  0  0  0  0  0  0
    9.6537    3.2885   22.5606 C   0  0  0  0  0  0  0  0  0  0  0  0
    8.4854    3.6638   23.4234 O   0  0  0  0  0  0  0  0  0  0  0  0
   11.5721    3.9903   21.8375 H   0  0  0  0  0  0  0  0  0  0  0  0
    7.1125   -0.2748   21.4977 C   0  0  0  0  0  0  0  0  0  0  0  0
    6.0152   -0.3764   20.4802 N   0  0  0  0  0  0  0  0  0  0  0  0
    6.0831   -1.0294   19.7466 H   0  0  0  0  0  0  0  0  0  0  0  0
    4.8144    0.5169   20.5803 C   0  0  0  0  0  0  0  0  0  0  0  0
    4.0647    0.8490   21.8364 C   0  0  0  0  0  0  0  0  0  0  0  0
    2.9395    1.7723   21.4742 N   0  0  0  0  0  0  0  0  0  0  0  0
    2.9936    2.0109   19.9943 C   0  0  0  0  0  0  0  0  0  0  0  0
    2.0540    2.8738   19.2054 C   0  0  0  0  0  0  0  0  0  0  0  0
    4.1524    1.2350   19.4418 S   0  0  0  0  0  0  0  0  0  0  0  0
 29 30  1  0  0  0
 30 31  1  0  0  0
 31 32  2  0  0  0
 31 28  1  0  0  0
 28  1  1  0  0  0
  1  2  1  0  0  0
  3  2  1  0  0  0
  3  4  1  0  0  0
  4  5  2  0  0  0
  4  6  1  0  0  0
  6 18  1  0  0  0
 18 19  2  0  0  0
 19 20  1  0  0  0
 20 21  2  0  0  0
 21 22  1  0  0  0
 22 23  2  0  0  0
 23 24  1  0  0  0
 24 25  2  0  0  0
 25 26  1  0  0  0
 26 27  2  0  0  0
  6  7  1  0  0  0
  7  8  1  0  0  0
  8 34  1  0  0  0
 34 35  1  0  0  0
 35 37  1  0  0  0
 37 38  2  0  0  0
 38 39  1  0  0  0
 39 40  2  0  0  0
 40 41  1  0  0  0
 40 42  1  0  0  0
  3  9  1  0  0  0
  9 10  2  0  0  0
 10 11  1  0  0  0
 11 12  1  0  0  0
 11 13  2  0  0  0
 13 14  1  0  0  0
 14 15  2  0  0  0
 15 16  1  0  0  0
 16 17  2  0  0  0
 16  1  1  0  0  0
  8  3  1  0  0  0
 42 37  1  0  0  0
 15  9  1  0  0  0
 27 18  1  0  0  0
 27 22  1  0  0  0
 30 33  1  0  0  0
 35 36  1  0  0  0
M  END
> <minimizedAffinity>
-8.86355

> <CNNscore>
0.1848791093

> <CNNaffinity>
6.9272665977

> <CNN_VS>
1.2807068825

> <CNNaffinity_variance>
0.1315929592

$$$$



 42 47  0  0  0  0  0  0  0  0999 V2000
   10.3526    0.9708   23.2423 N   0  0  0  0  0  0  0  0  0  0  0  0
    8.9604    0.5910   23.6519 C   0  0  0  0  0  0  0  0  0  0  0  0
    8.7422   -0.5558   24.5938 C   0  0  0  0  0  0  0  0  0  0  0  0
    8.3703   -1.6729   25.5231 C   0  0  0  0  0  0  0  0  0  0  0  0
    8.8948   -2.5444   26.1878 O   0  0  0  0  0  0  0  0  0  0  0  0
    6.8757   -1.6926   25.6496 N   0  0  0  0  0  0  0  0  0  0  0  0
    6.3240   -0.5876   24.7984 C   0  0  0  0  0  0  0  0  0  0  0  0
    7.4775    0.1150   24.1459 C   0  0  0  0  0  0  0  0  0  0  0  0
    9.9162   -1.3229   25.1262 C   0  0  0  0  0  0  0  0  0  0  0  0
    9.6979   -2.4697   26.0681 C   0  0  0  0  0  0  0  0  0  0  0  0
   10.8719   -3.2367   26.6004 C   0  0  0  0  0  0  0  0  0  0  0  0
   10.6537   -4.3836   27.5424 Cl  0  0  0  0  0  0  0  0  0  0  0  0
   12.2640   -2.8570   26.1909 C   0  0  0  0  0  0  0  0  0  0  0  0
   12.4822   -1.7102   25.2490 C   0  0  0  0  0  0  0  0  0  0  0  0
   11.3083   -0.9432   24.7166 C   0  0  0  0  0  0  0  0  0  0  0  0
   11.5265    0.2037   23.7747 C   0  0  0  0  0  0  0  0  0  0  0  0
   12.9187    0.5834   23.3652 O   0  0  0  0  0  0  0  0  0  0  0  0
    6.0738   -2.6493   26.4812 C   0  0  0  0  0  0  0  0  0  0  0  0
    5.7559   -4.0171   25.9539 C   0  0  0  0  0  0  0  0  0  0  0  0
    4.9540   -4.9738   26.7856 N   0  0  0  0  0  0  0  0  0  0  0  0
    4.4700   -4.5627   28.1445 C   0  0  0  0  0  0  0  0  0  0  0  0
    4.7879   -3.1949   28.6718 C   0  0  0  0  0  0  0  0  0  0  0  0
    4.3039   -2.7838   30.0308 C   0  0  0  0  0  0  0  0  0  0  0  0
    4.6218   -1.4159   30.5580 C   0  0  0  0  0  0  0  0  0  0  0  0
    5.4237   -0.4592   29.7263 C   0  0  0  0  0  0  0  0  0  0  0  0
    5.9077   -0.8703   28.3674 C   0  0  0  0  0  0  0  0  0  0  0  0
    5.5898   -2.2382   27.8401 C   0  0  0  0  0  0  0  0  0  0  0  0
   10.5708    2.1176   22.3004 C   0  0  0  0  0  0  0  0  0  0  0  0
    9.8817    5.8885   23.3279 C   0  0  0  0  0  0  0  0  0  0  0  0
    9.6695    4.5049   22.7886 N   0  0  0  0  0  0  0  0  0  0  0  0
   10.7829    3.5011   22.8397 C   0  0  0  0  0  0  0  0  0  0  0  0
   12.1086    3.8808   23.4301 O   0  0  0  0  0  0  0  0  0  0  0  0
    8.7995    4.2557   22.4011 H   0  0  0  0  0  0  0  0  0  0  0  0
    7.3829    1.2832   23.2098 C   0  0  0  0  0  0  0  0  0  0  0  0
    6.1759    1.4472   22.3345 N   0  0  0  0  0  0  0  0  0  0  0  0
    5.3584    1.8602   22.6956 H   0  0  0  0  0  0  0  0  0  0  0  0
    6.2143    0.9819   20.9090 C   0  0  0  0  0  0  0  0  0  0  0  0
    7.2588    0.0949   20.2989 C   0  0  0  0  0  0  0  0  0  0  0  0
    6.9049   -0.1132   18.8562 N   0  0  0  0  0  0  0  0  0  0  0  0
    5.6418    0.6452   18.5746 C   0  0  0  0  0  0  0  0  0  0  0  0
    4.9304    0.7146   17.2559 C   0  0  0  0  0  0  0  0  0  0  0  0
    5.2150    1.3221   19.8434 S   0  0  0  0  0  0  0  0  0  0  0  0
 29 30  1  0  0  0
 30 31  1  0  0  0
 31 32  2  0  0  0
 31 28  1  0  0  0
 28  1  1  0  0  0
  1  2  1  0  0  0
  3  2  1  0  0  0
  3  4  1  0  0  0
  4  5  2  0  0  0
  4  6  1  0  0  0
  6 18  1  0  0  0
 18 19  2  0  0  0
 19 20  1  0  0  0
 20 21  2  0  0  0
 21 22  1  0  0  0
 22 23  2  0  0  0
 23 24  1  0  0  0
 24 25  2  0  0  0
 25 26  1  0  0  0
 26 27  2  0  0  0
  6  7  1  0  0  0
  7  8  1  0  0  0
  8 34  1  0  0  0
 34 35  1  0  0  0
 35 37  1  0  0  0
 37 38  2  0  0  0
 38 39  1  0  0  0
 39 40  2  0  0  0
 40 41  1  0  0  0
 40 42  1  0  0  0
  3  9  1  0  0  0
  9 10  2  0  0  0
 10 11  1  0  0  0
 11 12  1  0  0  0
 11 13  2  0  0  0
 13 14  1  0  0  0
 14 15  2  0  0  0
 15 16  1  0  0  0
 16 17  2  0  0  0
 16  1  1  0  0  0
  8  3  1  0  0  0
 42 37  1  0  0  0
 15  9  1  0  0  0
 27 18  1  0  0  0
 27 22  1  0  0  0
 30 33  1  0  0  0
 35 36  1  0  0  0
M  END
> <minimizedAffinity>
-8.50334

> <CNNscore>
0.1777437776

> <CNNaffinity>
6.7843904495

> <CNN_VS>
1.2058831453

> <CNNaffinity_variance>
0.1710435897

$$$$



 42 47  0  0  0  0  0  0  0  0999 V2000
   10.8729    1.6374   22.6386 N   0  0  0  0  0  0  0  0  0  0  0  0
    9.4952    1.2257   23.0656 C   0  0  0  0  0  0  0  0  0  0  0  0
    9.3081    0.0105   23.9249 C   0  0  0  0  0  0  0  0  0  0  0  0
    8.9670   -1.1744   24.7791 C   0  0  0  0  0  0  0  0  0  0  0  0
    9.5130   -2.0929   25.3575 O   0  0  0  0  0  0  0  0  0  0  0  0
    7.4776   -1.2059   24.9547 N   0  0  0  0  0  0  0  0  0  0  0  0
    6.8982   -0.0404   24.2091 C   0  0  0  0  0  0  0  0  0  0  0  0
    8.0295    0.7113   23.5726 C   0  0  0  0  0  0  0  0  0  0  0  0
   10.4988   -0.7930   24.3571 C   0  0  0  0  0  0  0  0  0  0  0  0
   10.3117   -2.0082   25.2164 C   0  0  0  0  0  0  0  0  0  0  0  0
   11.5023   -2.8116   25.6486 C   0  0  0  0  0  0  0  0  0  0  0  0
   11.3152   -4.0268   26.5079 Cl  0  0  0  0  0  0  0  0  0  0  0  0
   12.8800   -2.3998   25.2216 C   0  0  0  0  0  0  0  0  0  0  0  0
   13.0671   -1.1847   24.3624 C   0  0  0  0  0  0  0  0  0  0  0  0
   11.8765   -0.3812   23.9302 C   0  0  0  0  0  0  0  0  0  0  0  0
   12.0636    0.8340   23.0709 C   0  0  0  0  0  0  0  0  0  0  0  0
   13.4413    1.2458   22.6439 O   0  0  0  0  0  0  0  0  0  0  0  0
    6.7036   -2.2240   25.7385 C   0  0  0  0  0  0  0  0  0  0  0  0
    6.2988   -1.9324   27.1531 C   0  0  0  0  0  0  0  0  0  0  0  0
    5.5248   -2.9506   27.9368 N   0  0  0  0  0  0  0  0  0  0  0  0
    5.1556   -4.2604   27.3059 C   0  0  0  0  0  0  0  0  0  0  0  0
    5.5604   -4.5520   25.8913 C   0  0  0  0  0  0  0  0  0  0  0  0
    5.1912   -5.8619   25.2604 C   0  0  0  0  0  0  0  0  0  0  0  0
    5.5960   -6.1535   23.8458 C   0  0  0  0  0  0  0  0  0  0  0  0
    6.3700   -5.1353   23.0621 C   0  0  0  0  0  0  0  0  0  0  0  0
    6.7392   -3.8255   23.6930 C   0  0  0  0  0  0  0  0  0  0  0  0
    6.3344   -3.5338   25.1076 C   0  0  0  0  0  0  0  0  0  0  0  0
   11.0600    2.8527   21.7794 C   0  0  0  0  0  0  0  0  0  0  0  0
   10.8104    6.4574   23.4206 C   0  0  0  0  0  0  0  0  0  0  0  0
   10.4103    5.1528   22.7977 N   0  0  0  0  0  0  0  0  0  0  0  0
   11.4602    4.1572   22.4023 C   0  0  0  0  0  0  0  0  0  0  0  0
   12.9103    4.4661   22.6297 O   0  0  0  0  0  0  0  0  0  0  0  0
    9.4585    4.9501   22.6484 H   0  0  0  0  0  0  0  0  0  0  0  0
    7.9042    1.9470   22.7315 C   0  0  0  0  0  0  0  0  0  0  0  0
    6.5637    2.5927   22.5422 N   0  0  0  0  0  0  0  0  0  0  0  0
    6.2445    3.2630   23.1888 H   0  0  0  0  0  0  0  0  0  0  0  0
    5.7093    2.2171   21.3679 C   0  0  0  0  0  0  0  0  0  0  0  0
    5.9560    1.0748   20.4276 C   0  0  0  0  0  0  0  0  0  0  0  0
    4.8574    1.0696   19.4063 N   0  0  0  0  0  0  0  0  0  0  0  0
    3.9317    2.2087   19.7154 C   0  0  0  0  0  0  0  0  0  0  0  0
    2.6965    2.5744   18.9471 C   0  0  0  0  0  0  0  0  0  0  0  0
    4.4582    2.9179   20.9278 S   0  0  0  0  0  0  0  0  0  0  0  0
 29 30  1  0  0  0
 30 31  1  0  0  0
 31 32  2  0  0  0
 31 28  1  0  0  0
 28  1  1  0  0  0
  1  2  1  0  0  0
  3  2  1  0  0  0
  3  4  1  0  0  0
  4  5  2  0  0  0
  4  6  1  0  0  0
  6 18  1  0  0  0
 18 19  2  0  0  0
 19 20  1  0  0  0
 20 21  2  0  0  0
 21 22  1  0  0  0
 22 23  2  0  0  0
 23 24  1  0  0  0
 24 25  2  0  0  0
 25 26  1  0  0  0
 26 27  2  0  0  0
  6  7  1  0  0  0
  7  8  1  0  0  0
  8 34  1  0  0  0
 34 35  1  0  0  0
 35 37  1  0  0  0
 37 38  2  0  0  0
 38 39  1  0  0  0
 39 40  2  0  0  0
 40 41  1  0  0  0
 40 42  1  0  0  0
  3  9  1  0  0  0
  9 10  2  0  0  0
 10 11  1  0  0  0
 11 12  1  0  0  0
 11 13  2  0  0  0
 13 14  1  0  0  0
 14 15  2  0  0  0
 15 16  1  0  0  0
 16 17  2  0  0  0
 16  1  1  0  0  0
  8  3  1  0  0  0
 42 37  1  0  0  0
 15  9  1  0  0  0
 27 18  1  0  0  0
 27 22  1  0  0  0
 30 33  1  0  0  0
 35 36  1  0  0  0
M  END
> <minimizedAffinity>
-8.70306

> <CNNscore>
0.1580896825

> <CNNaffinity>
7.1485834122

> <CNN_VS>
1.1301172972

> <CNNaffinity_variance>
0.1722793877

$$$$



 42 47  0  0  0  0  0  0  0  0999 V2000
   10.8675    1.5421   22.8196 N   0  0  0  0  0  0  0  0  0  0  0  0
    9.4749    1.2959   23.3196 C   0  0  0  0  0  0  0  0  0  0  0  0
    9.2041    0.1531   24.2526 C   0  0  0  0  0  0  0  0  0  0  0  0
    8.7830   -0.9443   25.1845 C   0  0  0  0  0  0  0  0  0  0  0  0
    9.2587   -1.8819   25.7936 O   0  0  0  0  0  0  0  0  0  0  0  0
    7.3067   -0.8146   25.4164 N   0  0  0  0  0  0  0  0  0  0  0  0
    6.8154    0.3630   24.6277 C   0  0  0  0  0  0  0  0  0  0  0  0
    7.9880    0.9610   23.9084 C   0  0  0  0  0  0  0  0  0  0  0  0
   10.3260   -0.7436   24.6856 C   0  0  0  0  0  0  0  0  0  0  0  0
   10.0552   -1.8865   25.6186 C   0  0  0  0  0  0  0  0  0  0  0  0
   11.1770   -2.7831   26.0516 C   0  0  0  0  0  0  0  0  0  0  0  0
   10.9062   -3.9260   26.9847 Cl  0  0  0  0  0  0  0  0  0  0  0  0
   12.5696   -2.5369   25.5516 C   0  0  0  0  0  0  0  0  0  0  0  0
   12.8404   -1.3941   24.6186 C   0  0  0  0  0  0  0  0  0  0  0  0
   11.7186   -0.4975   24.1856 C   0  0  0  0  0  0  0  0  0  0  0  0
   11.9894    0.6455   23.2526 C   0  0  0  0  0  0  0  0  0  0  0  0
   13.3820    0.8917   22.7525 O   0  0  0  0  0  0  0  0  0  0  0  0
    6.4689   -1.7059   26.2845 C   0  0  0  0  0  0  0  0  0  0  0  0
    6.2485   -3.1382   25.8971 C   0  0  0  0  0  0  0  0  0  0  0  0
    5.4107   -4.0295   26.7652 N   0  0  0  0  0  0  0  0  0  0  0  0
    4.7933   -3.4885   28.0207 C   0  0  0  0  0  0  0  0  0  0  0  0
    5.0137   -2.0562   28.4080 C   0  0  0  0  0  0  0  0  0  0  0  0
    4.3963   -1.5153   29.6635 C   0  0  0  0  0  0  0  0  0  0  0  0
    4.6167   -0.0830   30.0508 C   0  0  0  0  0  0  0  0  0  0  0  0
    5.4546    0.8083   29.1827 C   0  0  0  0  0  0  0  0  0  0  0  0
    6.0720    0.2674   27.9273 C   0  0  0  0  0  0  0  0  0  0  0  0
    5.8515   -1.1649   27.5399 C   0  0  0  0  0  0  0  0  0  0  0  0
   11.1383    2.6850   21.8865 C   0  0  0  0  0  0  0  0  0  0  0  0
   10.7219    6.3359   23.3856 C   0  0  0  0  0  0  0  0  0  0  0  0
   10.3824    4.9826   22.8351 N   0  0  0  0  0  0  0  0  0  0  0  0
   11.4779    4.0384   22.4371 C   0  0  0  0  0  0  0  0  0  0  0  0
   12.9129    4.4475   22.5896 O   0  0  0  0  0  0  0  0  0  0  0  0
    9.4405    4.7140   22.7349 H   0  0  0  0  0  0  0  0  0  0  0  0
    7.9511    2.1570   23.0039 C   0  0  0  0  0  0  0  0  0  0  0  0
    6.6396    2.8020   22.6666 N   0  0  0  0  0  0  0  0  0  0  0  0
    6.3006    3.5448   23.2167 H   0  0  0  0  0  0  0  0  0  0  0  0
    5.8446    2.3155   21.4913 C   0  0  0  0  0  0  0  0  0  0  0  0
    6.1976    1.1563   20.6072 C   0  0  0  0  0  0  0  0  0  0  0  0
    5.1282    1.0271   19.5633 N   0  0  0  0  0  0  0  0  0  0  0  0
    4.1143    2.1064   19.8023 C   0  0  0  0  0  0  0  0  0  0  0  0
    2.8752    2.3471   18.9920 C   0  0  0  0  0  0  0  0  0  0  0  0
    4.5571    2.9027   20.9939 S   0  0  0  0  0  0  0  0  0  0  0  0
 29 30  1  0  0  0
 30 31  1  0  0  0
 31 32  2  0  0  0
 31 28  1  0  0  0
 28  1  1  0  0  0
  1  2  1  0  0  0
  3  2  1  0  0  0
  3  4  1  0  0  0
  4  5  2  0  0  0
  4  6  1  0  0  0
  6 18  1  0  0  0
 18 19  2  0  0  0
 19 20  1  0  0  0
 20 21  2  0  0  0
 21 22  1  0  0  0
 22 23  2  0  0  0
 23 24  1  0  0  0
 24 25  2  0  0  0
 25 26  1  0  0  0
 26 27  2  0  0  0
  6  7  1  0  0  0
  7  8  1  0  0  0
  8 34  1  0  0  0
 34 35  1  0  0  0
 35 37  1  0  0  0
 37 38  2  0  0  0
 38 39  1  0  0  0
 39 40  2  0  0  0
 40 41  1  0  0  0
 40 42  1  0  0  0
  3  9  1  0  0  0
  9 10  2  0  0  0
 10 11  1  0  0  0
 11 12  1  0  0  0
 11 13  2  0  0  0
 13 14  1  0  0  0
 14 15  2  0  0  0
 15 16  1  0  0  0
 16 17  2  0  0  0
 16  1  1  0  0  0
  8  3  1  0  0  0
 42 37  1  0  0  0
 15  9  1  0  0  0
 27 18  1  0  0  0
 27 22  1  0  0  0
 30 33  1  0  0  0
 35 36  1  0  0  0
M  END
> <minimizedAffinity>
-8.48461

> <CNNscore>
0.1577591598

> <CNNaffinity>
6.9158563614

> <CNN_VS>
1.0910396576

> <CNNaffinity_variance>
0.1564739943

$$$$
