


 42 47  0  0  0  0  0  0  0  0999 V2000
   -6.9763   -0.8238  -22.9558 N   0  0  0  0  0  0  0  0  0  0  0  0
   -7.4361    0.5916  -23.1437 C   0  0  0  0  0  0  0  0  0  0  0  0
   -8.9005    0.8955  -23.2580 C   0  0  0  0  0  0  0  0  0  0  0  0
  -10.3241    1.3502  -23.3874 C   0  0  0  0  0  0  0  0  0  0  0  0
  -11.4500    0.8935  -23.3957 O   0  0  0  0  0  0  0  0  0  0  0  0
  -10.3209    2.8404  -23.5588 N   0  0  0  0  0  0  0  0  0  0  0  0
   -8.8954    3.3066  -23.5353 C   0  0  0  0  0  0  0  0  0  0  0  0
   -8.0176    2.1046  -23.3494 C   0  0  0  0  0  0  0  0  0  0  0  0
   -9.9052   -0.2160  -23.1843 C   0  0  0  0  0  0  0  0  0  0  0  0
  -11.3696    0.0879  -23.2986 C   0  0  0  0  0  0  0  0  0  0  0  0
  -12.3741   -1.0236  -23.2250 C   0  0  0  0  0  0  0  0  0  0  0  0
  -13.8387   -0.7197  -23.3393 Cl  0  0  0  0  0  0  0  0  0  0  0  0
  -11.9143   -2.4390  -23.0371 C   0  0  0  0  0  0  0  0  0  0  0  0
  -10.4499   -2.7429  -22.9228 C   0  0  0  0  0  0  0  0  0  0  0  0
   -9.4453   -1.6314  -22.9965 C   0  0  0  0  0  0  0  0  0  0  0  0
   -7.9808   -1.9353  -22.8822 C   0  0  0  0  0  0  0  0  0  0  0  0
   -7.5210   -3.3506  -22.6943 O   0  0  0  0  0  0  0  0  0  0  0  0
  -11.5309    3.7113  -23.7246 C   0  0  0  0  0  0  0  0  0  0  0  0
  -12.4537    3.9419  -22.5647 C   0  0  0  0  0  0  0  0  0  0  0  0
  -13.6636    4.8128  -22.7305 N   0  0  0  0  0  0  0  0  0  0  0  0
  -13.9507    5.4532  -24.0562 C   0  0  0  0  0  0  0  0  0  0  0  0
  -13.0279    5.2227  -25.2161 C   0  0  0  0  0  0  0  0  0  0  0  0
  -13.3150    5.8632  -26.5418 C   0  0  0  0  0  0  0  0  0  0  0  0
  -12.3921    5.6326  -27.7016 C   0  0  0  0  0  0  0  0  0  0  0  0
  -11.1822    4.7617  -27.5358 C   0  0  0  0  0  0  0  0  0  0  0  0
  -10.8951    4.1212  -26.2101 C   0  0  0  0  0  0  0  0  0  0  0  0
  -11.8180    4.3518  -25.0503 C   0  0  0  0  0  0  0  0  0  0  0  0
   -5.5118   -1.1277  -22.8415 C   0  0  0  0  0  0  0  0  0  0  0  0
   -3.7618   -1.6903  -26.3588 C   0  0  0  0  0  0  0  0  0  0  0  0
   -4.6633   -1.8883  -25.1764 N   0  0  0  0  0  0  0  0  0  0  0  0
   -4.6103   -0.9297  -24.0239 C   0  0  0  0  0  0  0  0  0  0  0  0
   -3.6556    0.2270  -24.0538 O   0  0  0  0  0  0  0  0  0  0  0  0
   -5.2899   -2.6474  -25.1568 H   0  0  0  0  0  0  0  0  0  0  0  0
   -6.5198    2.1107  -23.2690 C   0  0  0  0  0  0  0  0  0  0  0  0
   -5.8272    2.9558  -22.2414 N   0  0  0  0  0  0  0  0  0  0  0  0
   -6.0929    3.8956  -22.1168 H   0  0  0  0  0  0  0  0  0  0  0  0
   -4.7299    2.3692  -21.4037 C   0  0  0  0  0  0  0  0  0  0  0  0
   -4.8795    1.2581  -20.4072 C   0  0  0  0  0  0  0  0  0  0  0  0
   -3.5324    0.9929  -19.8030 N   0  0  0  0  0  0  0  0  0  0  0  0
   -2.5503    1.9402  -20.4261 C   0  0  0  0  0  0  0  0  0  0  0  0
   -1.0853    2.0225  -20.1145 C   0  0  0  0  0  0  0  0  0  0  0  0
   -3.2904    2.7908  -21.4153 S   0  0  0  0  0  0  0  0  0  0  0  0
 29 30  1  0  0  0
 30 31  1  0  0  0
 31 32  2  0  0  0
 31 28  1  0  0  0
 28  1  1  0  0  0
  1  2  1  0  0  0
  3  2  1  0  0  0
  3  4  1  0  0  0
  4  5  2  0  0  0
  4  6  1  0  0  0
  6 18  1  0  0  0
 18 19  2  0  0  0
 19 20  1  0  0  0
 20 21  2  0  0  0
 21 22  1  0  0  0
 22 23  2  0  0  0
 23 24  1  0  0  0
 24 25  2  0  0  0
 25 26  1  0  0  0
 26 27  2  0  0  0
  6  7  1  0  0  0
  7  8  1  0  0  0
  8 34  1  0  0  0
 34 35  1  0  0  0
 35 37  1  0  0  0
 37 38  2  0  0  0
 38 39  1  0  0  0
 39 40  2  0  0  0
 40 41  1  0  0  0
 40 42  1  0  0  0
  3  9  1  0  0  0
  9 10  2  0  0  0
 10 11  1  0  0  0
 11 12  1  0  0  0
 11 13  2  0  0  0
 13 14  1  0  0  0
 14 15  2  0  0  0
 15 16  1  0  0  0
 16 17  2  0  0  0
 16  1  1  0  0  0
  8  3  1  0  0  0
 42 37  1  0  0  0
 15  9  1  0  0  0
 27 18  1  0  0  0
 27 22  1  0  0  0
 30 33  1  0  0  0
 35 36  1  0  0  0
M  END
> <minimizedAffinity>
-7.93572

> <CNNscore>
0.6637310982

> <CNNaffinity>
6.9571065903

> <CNN_VS>
4.6176481247

> <CNNaffinity_variance>
0.1035328954

$$$$



 42 47  0  0  0  0  0  0  0  0999 V2000
   -7.5546   -1.6106  -23.3990 N   0  0  0  0  0  0  0  0  0  0  0  0
   -7.8168   -0.1433  -23.5671 C   0  0  0  0  0  0  0  0  0  0  0  0
   -9.2232    0.3767  -23.5267 C   0  0  0  0  0  0  0  0  0  0  0  0
  -10.5686    1.0396  -23.5094 C   0  0  0  0  0  0  0  0  0  0  0  0
  -11.7438    0.7574  -23.3838 O   0  0  0  0  0  0  0  0  0  0  0  0
  -10.3630    2.5113  -23.7136 N   0  0  0  0  0  0  0  0  0  0  0  0
   -8.8904    2.7580  -23.8572 C   0  0  0  0  0  0  0  0  0  0  0  0
   -8.1860    1.4388  -23.7417 C   0  0  0  0  0  0  0  0  0  0  0  0
  -10.3674   -0.5706  -23.3183 C   0  0  0  0  0  0  0  0  0  0  0  0
  -11.7738   -0.0506  -23.2780 C   0  0  0  0  0  0  0  0  0  0  0  0
  -12.9180   -0.9979  -23.0696 C   0  0  0  0  0  0  0  0  0  0  0  0
  -14.3244   -0.4779  -23.0292 Cl  0  0  0  0  0  0  0  0  0  0  0  0
  -12.6558   -2.4652  -22.9015 C   0  0  0  0  0  0  0  0  0  0  0  0
  -11.2494   -2.9852  -22.9418 C   0  0  0  0  0  0  0  0  0  0  0  0
  -10.1052   -2.0379  -23.1502 C   0  0  0  0  0  0  0  0  0  0  0  0
   -8.6988   -2.5579  -23.1906 C   0  0  0  0  0  0  0  0  0  0  0  0
   -8.4366   -4.0252  -23.0225 O   0  0  0  0  0  0  0  0  0  0  0  0
  -11.4407    3.5534  -23.7651 C   0  0  0  0  0  0  0  0  0  0  0  0
  -12.2990    3.8049  -22.5610 C   0  0  0  0  0  0  0  0  0  0  0  0
  -13.3767    4.8470  -22.6125 N   0  0  0  0  0  0  0  0  0  0  0  0
  -13.5961    5.6375  -23.8683 C   0  0  0  0  0  0  0  0  0  0  0  0
  -12.7378    5.3859  -25.0725 C   0  0  0  0  0  0  0  0  0  0  0  0
  -12.9572    6.1765  -26.3283 C   0  0  0  0  0  0  0  0  0  0  0  0
  -12.0989    5.9249  -27.5324 C   0  0  0  0  0  0  0  0  0  0  0  0
  -11.0212    4.8829  -27.4808 C   0  0  0  0  0  0  0  0  0  0  0  0
  -10.8018    4.0924  -26.2251 C   0  0  0  0  0  0  0  0  0  0  0  0
  -11.6601    4.3439  -25.0209 C   0  0  0  0  0  0  0  0  0  0  0  0
   -6.1481   -2.1306  -23.4394 C   0  0  0  0  0  0  0  0  0  0  0  0
   -3.8413   -2.3363  -26.6621 C   0  0  0  0  0  0  0  0  0  0  0  0
   -4.4274   -1.8584  -25.3667 N   0  0  0  0  0  0  0  0  0  0  0  0
   -5.5621   -2.6086  -24.7348 C   0  0  0  0  0  0  0  0  0  0  0  0
   -6.1110   -3.8369  -25.3983 O   0  0  0  0  0  0  0  0  0  0  0  0
   -4.0671   -1.0522  -24.9312 H   0  0  0  0  0  0  0  0  0  0  0  0
   -6.7044    1.2200  -23.8264 C   0  0  0  0  0  0  0  0  0  0  0  0
   -5.7653    2.1777  -23.1552 N   0  0  0  0  0  0  0  0  0  0  0  0
   -5.5304    3.0266  -23.5951 H   0  0  0  0  0  0  0  0  0  0  0  0
   -5.1839    1.8422  -21.8137 C   0  0  0  0  0  0  0  0  0  0  0  0
   -3.9580    2.4564  -21.2055 C   0  0  0  0  0  0  0  0  0  0  0  0
   -3.7429    1.8274  -19.8609 N   0  0  0  0  0  0  0  0  0  0  0  0
   -4.8359    0.8245  -19.6381 C   0  0  0  0  0  0  0  0  0  0  0  0
   -5.0080   -0.0365  -18.4219 C   0  0  0  0  0  0  0  0  0  0  0  0
   -5.7265    0.8336  -20.8450 S   0  0  0  0  0  0  0  0  0  0  0  0
 29 30  1  0  0  0
 30 31  1  0  0  0
 31 32  2  0  0  0
 31 28  1  0  0  0
 28  1  1  0  0  0
  1  2  1  0  0  0
  3  2  1  0  0  0
  3  4  1  0  0  0
  4  5  2  0  0  0
  4  6  1  0  0  0
  6 18  1  0  0  0
 18 19  2  0  0  0
 19 20  1  0  0  0
 20 21  2  0  0  0
 21 22  1  0  0  0
 22 23  2  0  0  0
 23 24  1  0  0  0
 24 25  2  0  0  0
 25 26  1  0  0  0
 26 27  2  0  0  0
  6  7  1  0  0  0
  7  8  1  0  0  0
  8 34  1  0  0  0
 34 35  1  0  0  0
 35 37  1  0  0  0
 37 38  2  0  0  0
 38 39  1  0  0  0
 39 40  2  0  0  0
 40 41  1  0  0  0
 40 42  1  0  0  0
  3  9  1  0  0  0
  9 10  2  0  0  0
 10 11  1  0  0  0
 11 12  1  0  0  0
 11 13  2  0  0  0
 13 14  1  0  0  0
 14 15  2  0  0  0
 15 16  1  0  0  0
 16 17  2  0  0  0
 16  1  1  0  0  0
  8  3  1  0  0  0
 42 37  1  0  0  0
 15  9  1  0  0  0
 27 18  1  0  0  0
 27 22  1  0  0  0
 30 33  1  0  0  0
 35 36  1  0  0  0
M  END
> <minimizedAffinity>
-7.57889

> <CNNscore>
0.5408192277

> <CNNaffinity>
6.9186720848

> <CNN_VS>
3.7417509556

> <CNNaffinity_variance>
0.1504455805

$$$$



 42 47  0  0  0  0  0  0  0  0999 V2000
   -6.9880   -1.2205  -22.4484 N   0  0  0  0  0  0  0  0  0  0  0  0
   -7.0834    0.1045  -23.1449 C   0  0  0  0  0  0  0  0  0  0  0  0
   -8.4125    0.6030  -23.6298 C   0  0  0  0  0  0  0  0  0  0  0  0
   -9.6655    1.2286  -24.1669 C   0  0  0  0  0  0  0  0  0  0  0  0
  -10.8557    1.0007  -24.2551 O   0  0  0  0  0  0  0  0  0  0  0  0
   -9.2990    2.5474  -24.7805 N   0  0  0  0  0  0  0  0  0  0  0  0
   -7.8194    2.7368  -24.6228 C   0  0  0  0  0  0  0  0  0  0  0  0
   -7.2715    1.5352  -23.9116 C   0  0  0  0  0  0  0  0  0  0  0  0
   -9.6462   -0.2236  -23.4182 C   0  0  0  0  0  0  0  0  0  0  0  0
  -10.9752    0.2749  -23.9031 C   0  0  0  0  0  0  0  0  0  0  0  0
  -12.2089   -0.5517  -23.6915 C   0  0  0  0  0  0  0  0  0  0  0  0
  -13.5380   -0.0533  -24.1764 Cl  0  0  0  0  0  0  0  0  0  0  0  0
  -12.1135   -1.8768  -22.9950 C   0  0  0  0  0  0  0  0  0  0  0  0
  -10.7845   -2.3752  -22.5101 C   0  0  0  0  0  0  0  0  0  0  0  0
   -9.5508   -1.5487  -22.7217 C   0  0  0  0  0  0  0  0  0  0  0  0
   -8.2217   -2.0471  -22.2368 C   0  0  0  0  0  0  0  0  0  0  0  0
   -8.1263   -3.3722  -21.5403 O   0  0  0  0  0  0  0  0  0  0  0  0
  -10.2459    3.5080  -25.4368 C   0  0  0  0  0  0  0  0  0  0  0  0
  -10.0954    3.8324  -26.8935 C   0  0  0  0  0  0  0  0  0  0  0  0
  -11.0423    4.7930  -27.5498 N   0  0  0  0  0  0  0  0  0  0  0  0
  -12.1397    5.4292  -26.7492 C   0  0  0  0  0  0  0  0  0  0  0  0
  -12.2901    5.1049  -25.2924 C   0  0  0  0  0  0  0  0  0  0  0  0
  -13.3876    5.7412  -24.4918 C   0  0  0  0  0  0  0  0  0  0  0  0
  -13.5380    5.4168  -23.0351 C   0  0  0  0  0  0  0  0  0  0  0  0
  -12.5911    4.4562  -22.3789 C   0  0  0  0  0  0  0  0  0  0  0  0
  -11.4938    3.8199  -23.1794 C   0  0  0  0  0  0  0  0  0  0  0  0
  -11.3433    4.1443  -24.6362 C   0  0  0  0  0  0  0  0  0  0  0  0
   -5.6589   -1.7190  -21.9635 C   0  0  0  0  0  0  0  0  0  0  0  0
   -5.5313   -5.6832  -21.8277 C   0  0  0  0  0  0  0  0  0  0  0  0
   -5.6598   -4.2866  -22.3597 N   0  0  0  0  0  0  0  0  0  0  0  0
   -5.5304   -3.1155  -21.4315 C   0  0  0  0  0  0  0  0  0  0  0  0
   -5.2723   -3.3410  -19.9711 O   0  0  0  0  0  0  0  0  0  0  0  0
   -5.8292   -4.1387  -23.3182 H   0  0  0  0  0  0  0  0  0  0  0  0
   -5.8349    1.3059  -23.5463 C   0  0  0  0  0  0  0  0  0  0  0  0
   -5.0202    2.4248  -22.9682 N   0  0  0  0  0  0  0  0  0  0  0  0
   -5.0724    3.3258  -23.3614 H   0  0  0  0  0  0  0  0  0  0  0  0
   -4.1259    2.1709  -21.7910 C   0  0  0  0  0  0  0  0  0  0  0  0
   -4.5329    1.5326  -20.4960 C   0  0  0  0  0  0  0  0  0  0  0  0
   -3.3261    1.4781  -19.6068 N   0  0  0  0  0  0  0  0  0  0  0  0
   -2.1733    2.0826  -20.3522 C   0  0  0  0  0  0  0  0  0  0  0  0
   -0.7722    2.2326  -19.8380 C   0  0  0  0  0  0  0  0  0  0  0  0
   -2.6676    2.5108  -21.7021 S   0  0  0  0  0  0  0  0  0  0  0  0
 29 30  1  0  0  0
 30 31  1  0  0  0
 31 32  2  0  0  0
 31 28  1  0  0  0
 28  1  1  0  0  0
  1  2  1  0  0  0
  3  2  1  0  0  0
  3  4  1  0  0  0
  4  5  2  0  0  0
  4  6  1  0  0  0
  6 18  1  0  0  0
 18 19  2  0  0  0
 19 20  1  0  0  0
 20 21  2  0  0  0
 21 22  1  0  0  0
 22 23  2  0  0  0
 23 24  1  0  0  0
 24 25  2  0  0  0
 25 26  1  0  0  0
 26 27  2  0  0  0
  6  7  1  0  0  0
  7  8  1  0  0  0
  8 34  1  0  0  0
 34 35  1  0  0  0
 35 37  1  0  0  0
 37 38  2  0  0  0
 38 39  1  0  0  0
 39 40  2  0  0  0
 40 41  1  0  0  0
 40 42  1  0  0  0
  3  9  1  0  0  0
  9 10  2  0  0  0
 10 11  1  0  0  0
 11 12  1  0  0  0
 11 13  2  0  0  0
 13 14  1  0  0  0
 14 15  2  0  0  0
 15 16  1  0  0  0
 16 17  2  0  0  0
 16  1  1  0  0  0
  8  3  1  0  0  0
 42 37  1  0  0  0
 15  9  1  0  0  0
 27 18  1  0  0  0
 27 22  1  0  0  0
 30 33  1  0  0  0
 35 36  1  0  0  0
M  END
> <minimizedAffinity>
-7.78877

> <CNNscore>
0.3726471066

> <CNNaffinity>
6.7149000168

> <CNN_VS>
2.5022881031

> <CNNaffinity_variance>
0.1253928095

$$$$



 42 47  0  0  0  0  0  0  0  0999 V2000
  -10.5487    3.7004  -23.9164 N   0  0  0  0  0  0  0  0  0  0  0  0
   -9.2960    2.8758  -23.8888 C   0  0  0  0  0  0  0  0  0  0  0  0
   -9.3804    1.3895  -23.7048 C   0  0  0  0  0  0  0  0  0  0  0  0
   -9.3079   -0.0984  -23.5295 C   0  0  0  0  0  0  0  0  0  0  0  0
  -10.0418   -1.0540  -23.3723 O   0  0  0  0  0  0  0  0  0  0  0  0
   -7.8629   -0.4995  -23.5640 N   0  0  0  0  0  0  0  0  0  0  0  0
   -7.0423    0.7407  -23.7605 C   0  0  0  0  0  0  0  0  0  0  0  0
   -7.9801    1.9081  -23.8475 C   0  0  0  0  0  0  0  0  0  0  0  0
  -10.7174    0.7278  -23.5484 C   0  0  0  0  0  0  0  0  0  0  0  0
  -10.8018   -0.7584  -23.3644 C   0  0  0  0  0  0  0  0  0  0  0  0
  -12.1388   -1.4201  -23.2080 C   0  0  0  0  0  0  0  0  0  0  0  0
  -12.2232   -2.9064  -23.0240 Cl  0  0  0  0  0  0  0  0  0  0  0  0
  -13.3915   -0.5955  -23.2357 C   0  0  0  0  0  0  0  0  0  0  0  0
  -13.3072    0.8908  -23.4197 C   0  0  0  0  0  0  0  0  0  0  0  0
  -11.9702    1.5524  -23.5760 C   0  0  0  0  0  0  0  0  0  0  0  0
  -11.8858    3.0387  -23.7601 C   0  0  0  0  0  0  0  0  0  0  0  0
  -13.1385    3.8633  -23.7877 O   0  0  0  0  0  0  0  0  0  0  0  0
   -7.3319   -1.8955  -23.4261 C   0  0  0  0  0  0  0  0  0  0  0  0
   -6.7813   -2.3621  -22.1111 C   0  0  0  0  0  0  0  0  0  0  0  0
   -6.2503   -3.7581  -21.9732 N   0  0  0  0  0  0  0  0  0  0  0  0
   -6.2697   -4.6876  -23.1503 C   0  0  0  0  0  0  0  0  0  0  0  0
   -6.8203   -4.2210  -24.4653 C   0  0  0  0  0  0  0  0  0  0  0  0
   -6.8397   -5.1506  -25.6425 C   0  0  0  0  0  0  0  0  0  0  0  0
   -7.3903   -4.6839  -26.9575 C   0  0  0  0  0  0  0  0  0  0  0  0
   -7.9214   -3.2879  -27.0954 C   0  0  0  0  0  0  0  0  0  0  0  0
   -7.9019   -2.3584  -25.9182 C   0  0  0  0  0  0  0  0  0  0  0  0
   -7.3513   -2.8250  -24.6032 C   0  0  0  0  0  0  0  0  0  0  0  0
  -10.4643    5.1867  -24.1004 C   0  0  0  0  0  0  0  0  0  0  0  0
  -12.4474    6.6122  -27.2286 C   0  0  0  0  0  0  0  0  0  0  0  0
  -12.1645    6.0055  -25.8863 N   0  0  0  0  0  0  0  0  0  0  0  0
  -10.7473    5.7935  -25.4427 C   0  0  0  0  0  0  0  0  0  0  0  0
   -9.6131    6.1883  -26.3415 O   0  0  0  0  0  0  0  0  0  0  0  0
  -12.9089    5.7463  -25.2964 H   0  0  0  0  0  0  0  0  0  0  0  0
   -7.5867    3.3424  -24.0429 C   0  0  0  0  0  0  0  0  0  0  0  0
   -6.9781    4.1142  -22.9100 N   0  0  0  0  0  0  0  0  0  0  0  0
   -7.5225    4.7627  -22.4076 H   0  0  0  0  0  0  0  0  0  0  0  0
   -5.5400    3.8982  -22.5423 C   0  0  0  0  0  0  0  0  0  0  0  0
   -5.0084    2.8002  -21.6694 C   0  0  0  0  0  0  0  0  0  0  0  0
   -3.5209    2.9657  -21.5707 N   0  0  0  0  0  0  0  0  0  0  0  0
   -3.1330    4.1659  -22.3825 C   0  0  0  0  0  0  0  0  0  0  0  0
   -1.7416    4.6966  -22.5622 C   0  0  0  0  0  0  0  0  0  0  0  0
   -4.3809    4.7422  -22.9830 S   0  0  0  0  0  0  0  0  0  0  0  0
 29 30  1  0  0  0
 30 31  1  0  0  0
 31 32  2  0  0  0
 31 28  1  0  0  0
 28  1  1  0  0  0
  1  2  1  0  0  0
  3  2  1  0  0  0
  3  4  1  0  0  0
  4  5  2  0  0  0
  4  6  1  0  0  0
  6 18  1  0  0  0
 18 19  2  0  0  0
 19 20  1  0  0  0
 20 21  2  0  0  0
 21 22  1  0  0  0
 22 23  2  0  0  0
 23 24  1  0  0  0
 24 25  2  0  0  0
 25 26  1  0  0  0
 26 27  2  0  0  0
  6  7  1  0  0  0
  7  8  1  0  0  0
  8 34  1  0  0  0
 34 35  1  0  0  0
 35 37  1  0  0  0
 37 38  2  0  0  0
 38 39  1  0  0  0
 39 40  2  0  0  0
 40 41  1  0  0  0
 40 42  1  0  0  0
  3  9  1  0  0  0
  9 10  2  0  0  0
 10 11  1  0  0  0
 11 12  1  0  0  0
 11 13  2  0  0  0
 13 14  1  0  0  0
 14 15  2  0  0  0
 15 16  1  0  0  0
 16 17  2  0  0  0
 16  1  1  0  0  0
  8  3  1  0  0  0
 42 37  1  0  0  0
 15  9  1  0  0  0
 27 18  1  0  0  0
 27 22  1  0  0  0
 30 33  1  0  0  0
 35 36  1  0  0  0
M  END
> <minimizedAffinity>
-7.13256

> <CNNscore>
0.2418320179

> <CNNaffinity>
6.5588493347

> <CNN_VS>
1.5861397982

> <CNNaffinity_variance>
0.3385786414

$$$$



 42 47  0  0  0  0  0  0  0  0999 V2000
   -5.7867   -4.0634  -21.5960 N   0  0  0  0  0  0  0  0  0  0  0  0
   -6.1157   -3.5199  -22.9548 C   0  0  0  0  0  0  0  0  0  0  0  0
   -6.0478   -2.0431  -23.2085 C   0  0  0  0  0  0  0  0  0  0  0  0
   -6.0242   -0.5979  -23.6096 C   0  0  0  0  0  0  0  0  0  0  0  0
   -5.7887    0.4958  -23.1356 O   0  0  0  0  0  0  0  0  0  0  0  0
   -6.4200   -0.5110  -25.0538 N   0  0  0  0  0  0  0  0  0  0  0  0
   -6.6884   -1.9026  -25.5453 C   0  0  0  0  0  0  0  0  0  0  0  0
   -6.4584   -2.8494  -24.4049 C   0  0  0  0  0  0  0  0  0  0  0  0
   -5.6509   -1.1097  -22.1034 C   0  0  0  0  0  0  0  0  0  0  0  0
   -5.5830    0.3671  -22.3571 C   0  0  0  0  0  0  0  0  0  0  0  0
   -5.1861    1.3004  -21.2520 C   0  0  0  0  0  0  0  0  0  0  0  0
   -5.1182    2.7773  -21.5057 Cl  0  0  0  0  0  0  0  0  0  0  0  0
   -4.8570    0.7570  -19.8932 C   0  0  0  0  0  0  0  0  0  0  0  0
   -4.9249   -0.7198  -19.6395 C   0  0  0  0  0  0  0  0  0  0  0  0
   -5.3218   -1.6532  -20.7446 C   0  0  0  0  0  0  0  0  0  0  0  0
   -5.3897   -3.1300  -20.4909 C   0  0  0  0  0  0  0  0  0  0  0  0
   -5.0607   -3.6735  -19.1321 O   0  0  0  0  0  0  0  0  0  0  0  0
   -6.5285    0.7466  -25.8641 C   0  0  0  0  0  0  0  0  0  0  0  0
   -5.4345    1.1195  -26.8202 C   0  0  0  0  0  0  0  0  0  0  0  0
   -5.5429    2.3771  -27.6305 N   0  0  0  0  0  0  0  0  0  0  0  0
   -6.7454    3.2618  -27.4848 C   0  0  0  0  0  0  0  0  0  0  0  0
   -7.8395    2.8889  -26.5287 C   0  0  0  0  0  0  0  0  0  0  0  0
   -9.0420    3.7736  -26.3830 C   0  0  0  0  0  0  0  0  0  0  0  0
  -10.1360    3.4007  -25.4269 C   0  0  0  0  0  0  0  0  0  0  0  0
  -10.0275    2.1431  -24.6166 C   0  0  0  0  0  0  0  0  0  0  0  0
   -8.8250    1.2584  -24.7623 C   0  0  0  0  0  0  0  0  0  0  0  0
   -7.7310    1.6313  -25.7184 C   0  0  0  0  0  0  0  0  0  0  0  0
   -5.8546   -5.5403  -21.3423 C   0  0  0  0  0  0  0  0  0  0  0  0
   -3.6226   -7.4301  -24.0250 C   0  0  0  0  0  0  0  0  0  0  0  0
   -4.0396   -6.4654  -22.9548 N   0  0  0  0  0  0  0  0  0  0  0  0
   -5.4376   -6.5050  -22.4125 C   0  0  0  0  0  0  0  0  0  0  0  0
   -6.4186   -7.5094  -22.9405 O   0  0  0  0  0  0  0  0  0  0  0  0
   -3.3957   -5.8061  -22.6082 H   0  0  0  0  0  0  0  0  0  0  0  0
   -6.6119   -4.3408  -24.4525 C   0  0  0  0  0  0  0  0  0  0  0  0
   -7.9808   -4.9540  -24.4607 N   0  0  0  0  0  0  0  0  0  0  0  0
   -8.0815   -5.9333  -24.4521 H   0  0  0  0  0  0  0  0  0  0  0  0
   -9.1962   -4.0752  -24.4819 C   0  0  0  0  0  0  0  0  0  0  0  0
  -10.0328   -3.7564  -25.6854 C   0  0  0  0  0  0  0  0  0  0  0  0
  -11.1420   -2.8451  -25.2506 N   0  0  0  0  0  0  0  0  0  0  0  0
  -10.9910   -2.6007  -23.7784 C   0  0  0  0  0  0  0  0  0  0  0  0
  -11.8856   -1.7461  -22.9302 C   0  0  0  0  0  0  0  0  0  0  0  0
   -9.7884   -3.3610  -23.3033 S   0  0  0  0  0  0  0  0  0  0  0  0
 29 30  1  0  0  0
 30 31  1  0  0  0
 31 32  2  0  0  0
 31 28  1  0  0  0
 28  1  1  0  0  0
  1  2  1  0  0  0
  3  2  1  0  0  0
  3  4  1  0  0  0
  4  5  2  0  0  0
  4  6  1  0  0  0
  6 18  1  0  0  0
 18 19  2  0  0  0
 19 20  1  0  0  0
 20 21  2  0  0  0
 21 22  1  0  0  0
 22 23  2  0  0  0
 23 24  1  0  0  0
 24 25  2  0  0  0
 25 26  1  0  0  0
 26 27  2  0  0  0
  6  7  1  0  0  0
  7  8  1  0  0  0
  8 34  1  0  0  0
 34 35  1  0  0  0
 35 37  1  0  0  0
 37 38  2  0  0  0
 38 39  1  0  0  0
 39 40  2  0  0  0
 40 41  1  0  0  0
 40 42  1  0  0  0
  3  9  1  0  0  0
  9 10  2  0  0  0
 10 11  1  0  0  0
 11 12  1  0  0  0
 11 13  2  0  0  0
 13 14  1  0  0  0
 14 15  2  0  0  0
 15 16  1  0  0  0
 16 17  2  0  0  0
 16  1  1  0  0  0
  8  3  1  0  0  0
 42 37  1  0  0  0
 15  9  1  0  0  0
 27 18  1  0  0  0
 27 22  1  0  0  0
 30 33  1  0  0  0
 35 36  1  0  0  0
M  END
> <minimizedAffinity>
-7.52560

> <CNNscore>
0.2258032262

> <CNNaffinity>
6.5453276634

> <CNN_VS>
1.4779560566

> <CNNaffinity_variance>
0.1302510202

$$$$



 42 47  0  0  0  0  0  0  0  0999 V2000
   -8.6038    2.4890  -24.0949 N   0  0  0  0  0  0  0  0  0  0  0  0
   -7.7651    1.2503  -24.2043 C   0  0  0  0  0  0  0  0  0  0  0  0
   -8.3945   -0.0997  -24.0274 C   0  0  0  0  0  0  0  0  0  0  0  0
   -8.8813   -1.5103  -23.8753 C   0  0  0  0  0  0  0  0  0  0  0  0
   -9.9073   -2.1221  -23.6529 O   0  0  0  0  0  0  0  0  0  0  0  0
   -7.7094   -2.4278  -24.0620 N   0  0  0  0  0  0  0  0  0  0  0  0
   -6.4983   -1.5842  -24.3295 C   0  0  0  0  0  0  0  0  0  0  0  0
   -6.9217   -0.1453  -24.3081 C   0  0  0  0  0  0  0  0  0  0  0  0
   -9.8628   -0.2110  -23.7410 C   0  0  0  0  0  0  0  0  0  0  0  0
  -10.4922   -1.5609  -23.5640 C   0  0  0  0  0  0  0  0  0  0  0  0
  -11.9604   -1.6721  -23.2776 C   0  0  0  0  0  0  0  0  0  0  0  0
  -12.5899   -3.0221  -23.1007 Cl  0  0  0  0  0  0  0  0  0  0  0  0
  -12.7991   -0.4333  -23.1682 C   0  0  0  0  0  0  0  0  0  0  0  0
  -12.1697    0.9166  -23.3452 C   0  0  0  0  0  0  0  0  0  0  0  0
  -10.7015    1.0278  -23.6316 C   0  0  0  0  0  0  0  0  0  0  0  0
  -10.0720    2.3778  -23.8085 C   0  0  0  0  0  0  0  0  0  0  0  0
  -10.9107    3.6166  -23.6991 O   0  0  0  0  0  0  0  0  0  0  0  0
   -7.7427   -3.9259  -23.9933 C   0  0  0  0  0  0  0  0  0  0  0  0
   -7.2056   -4.6334  -22.7845 C   0  0  0  0  0  0  0  0  0  0  0  0
   -7.2390   -6.1314  -22.7158 N   0  0  0  0  0  0  0  0  0  0  0  0
   -7.8094   -6.9219  -23.8558 C   0  0  0  0  0  0  0  0  0  0  0  0
   -8.3464   -6.2144  -25.0646 C   0  0  0  0  0  0  0  0  0  0  0  0
   -8.9169   -7.0051  -26.2046 C   0  0  0  0  0  0  0  0  0  0  0  0
   -9.4539   -6.2975  -27.4133 C   0  0  0  0  0  0  0  0  0  0  0  0
   -9.4206   -4.7994  -27.4820 C   0  0  0  0  0  0  0  0  0  0  0  0
   -8.8502   -4.0089  -26.3420 C   0  0  0  0  0  0  0  0  0  0  0  0
   -8.3131   -4.7164  -25.1333 C   0  0  0  0  0  0  0  0  0  0  0  0
   -7.9743    3.8391  -24.2719 C   0  0  0  0  0  0  0  0  0  0  0  0
   -9.4834    6.1439  -27.1285 C   0  0  0  0  0  0  0  0  0  0  0  0
   -9.3363    5.4126  -25.8271 N   0  0  0  0  0  0  0  0  0  0  0  0
   -8.1214    4.5704  -25.5732 C   0  0  0  0  0  0  0  0  0  0  0  0
   -7.0534    4.4594  -26.6208 O   0  0  0  0  0  0  0  0  0  0  0  0
  -10.0373    5.4854  -25.1396 H   0  0  0  0  0  0  0  0  0  0  0  0
   -6.0291    1.0398  -24.5287 C   0  0  0  0  0  0  0  0  0  0  0  0
   -4.5530    0.9217  -24.2902 N   0  0  0  0  0  0  0  0  0  0  0  0
   -3.9361    0.8402  -25.0531 H   0  0  0  0  0  0  0  0  0  0  0  0
   -4.0166    0.9276  -22.8894 C   0  0  0  0  0  0  0  0  0  0  0  0
   -2.5737    1.0497  -22.4983 C   0  0  0  0  0  0  0  0  0  0  0  0
   -2.4944    1.0101  -21.0009 N   0  0  0  0  0  0  0  0  0  0  0  0
   -3.8884    0.8635  -20.4666 C   0  0  0  0  0  0  0  0  0  0  0  0
   -4.2738    0.7822  -19.0192 C   0  0  0  0  0  0  0  0  0  0  0  0
   -4.8292    0.8126  -21.6338 S   0  0  0  0  0  0  0  0  0  0  0  0
 29 30  1  0  0  0
 30 31  1  0  0  0
 31 32  2  0  0  0
 31 28  1  0  0  0
 28  1  1  0  0  0
  1  2  1  0  0  0
  3  2  1  0  0  0
  3  4  1  0  0  0
  4  5  2  0  0  0
  4  6  1  0  0  0
  6 18  1  0  0  0
 18 19  2  0  0  0
 19 20  1  0  0  0
 20 21  2  0  0  0
 21 22  1  0  0  0
 22 23  2  0  0  0
 23 24  1  0  0  0
 24 25  2  0  0  0
 25 26  1  0  0  0
 26 27  2  0  0  0
  6  7  1  0  0  0
  7  8  1  0  0  0
  8 34  1  0  0  0
 34 35  1  0  0  0
 35 37  1  0  0  0
 37 38  2  0  0  0
 38 39  1  0  0  0
 39 40  2  0  0  0
 40 41  1  0  0  0
 40 42  1  0  0  0
  3  9  1  0  0  0
  9 10  2  0  0  0
 10 11  1  0  0  0
 11 12  1  0  0  0
 11 13  2  0  0  0
 13 14  1  0  0  0
 14 15  2  0  0  0
 15 16  1  0  0  0
 16 17  2  0  0  0
 16  1  1  0  0  0
  8  3  1  0  0  0
 42 37  1  0  0  0
 15  9  1  0  0  0
 27 18  1  0  0  0
 27 22  1  0  0  0
 30 33  1  0  0  0
 35 36  1  0  0  0
M  END
> <minimizedAffinity>
-7.53397

> <CNNscore>
0.2241787016

> <CNNaffinity>
6.7795090675

> <CNN_VS>
1.5198215246

> <CNNaffinity_variance>
0.1595716774

$$$$



 42 47  0  0  0  0  0  0  0  0999 V2000
   -8.3458    2.4824  -24.2322 N   0  0  0  0  0  0  0  0  0  0  0  0
   -7.5376    1.2220  -24.3212 C   0  0  0  0  0  0  0  0  0  0  0  0
   -8.1955   -0.1080  -24.1014 C   0  0  0  0  0  0  0  0  0  0  0  0
   -8.7125   -1.5025  -23.9068 C   0  0  0  0  0  0  0  0  0  0  0  0
   -9.7491   -2.0842  -23.6551 O   0  0  0  0  0  0  0  0  0  0  0  0
   -7.5648   -2.4516  -24.0857 N   0  0  0  0  0  0  0  0  0  0  0  0
   -6.3384   -1.6437  -24.3909 C   0  0  0  0  0  0  0  0  0  0  0  0
   -6.7282   -0.1952  -24.4006 C   0  0  0  0  0  0  0  0  0  0  0  0
   -9.6617   -0.1775  -23.7926 C   0  0  0  0  0  0  0  0  0  0  0  0
  -10.3196   -1.5074  -23.5728 C   0  0  0  0  0  0  0  0  0  0  0  0
  -11.7858   -1.5769  -23.2640 C   0  0  0  0  0  0  0  0  0  0  0  0
  -12.4438   -2.9069  -23.0441 Cl  0  0  0  0  0  0  0  0  0  0  0  0
  -12.5941   -0.3165  -23.1750 C   0  0  0  0  0  0  0  0  0  0  0  0
  -11.9362    1.0135  -23.3948 C   0  0  0  0  0  0  0  0  0  0  0  0
  -10.4700    1.0830  -23.7036 C   0  0  0  0  0  0  0  0  0  0  0  0
   -9.8120    2.4130  -23.9234 C   0  0  0  0  0  0  0  0  0  0  0  0
  -10.6203    3.6734  -23.8344 O   0  0  0  0  0  0  0  0  0  0  0  0
   -7.6318   -3.9463  -23.9783 C   0  0  0  0  0  0  0  0  0  0  0  0
   -7.1047   -4.6347  -22.7543 C   0  0  0  0  0  0  0  0  0  0  0  0
   -7.1716   -6.1293  -22.6469 N   0  0  0  0  0  0  0  0  0  0  0  0
   -7.7657   -6.9356  -23.7635 C   0  0  0  0  0  0  0  0  0  0  0  0
   -8.2928   -6.2472  -24.9876 C   0  0  0  0  0  0  0  0  0  0  0  0
   -8.8870   -7.0535  -26.1043 C   0  0  0  0  0  0  0  0  0  0  0  0
   -9.4140   -6.3651  -27.3283 C   0  0  0  0  0  0  0  0  0  0  0  0
   -9.3471   -4.8704  -27.4357 C   0  0  0  0  0  0  0  0  0  0  0  0
   -8.7530   -4.0642  -26.3191 C   0  0  0  0  0  0  0  0  0  0  0  0
   -8.2259   -4.7525  -25.0950 C   0  0  0  0  0  0  0  0  0  0  0  0
   -7.6878    3.8124  -24.4520 C   0  0  0  0  0  0  0  0  0  0  0  0
   -6.0304    6.6947  -22.2852 C   0  0  0  0  0  0  0  0  0  0  0  0
   -6.6742    5.9774  -23.4346 N   0  0  0  0  0  0  0  0  0  0  0  0
   -7.0441    4.5298  -23.3027 C   0  0  0  0  0  0  0  0  0  0  0  0
   -6.7702    3.7994  -22.0214 O   0  0  0  0  0  0  0  0  0  0  0  0
   -6.8539    6.4568  -24.2755 H   0  0  0  0  0  0  0  0  0  0  0  0
   -5.8116    0.9627  -24.6634 C   0  0  0  0  0  0  0  0  0  0  0  0
   -4.3532    0.8556  -24.3295 N   0  0  0  0  0  0  0  0  0  0  0  0
   -3.6887    0.7639  -25.0501 H   0  0  0  0  0  0  0  0  0  0  0  0
   -3.9071    0.8883  -22.8977 C   0  0  0  0  0  0  0  0  0  0  0  0
   -2.5011    1.0925  -22.4168 C   0  0  0  0  0  0  0  0  0  0  0  0
   -2.5138    1.0529  -20.9174 N   0  0  0  0  0  0  0  0  0  0  0  0
   -3.9277    0.8241  -20.4716 C   0  0  0  0  0  0  0  0  0  0  0  0
   -4.3979    0.7161  -19.0513 C   0  0  0  0  0  0  0  0  0  0  0  0
   -4.7888    0.7224  -21.6956 S   0  0  0  0  0  0  0  0  0  0  0  0
 29 30  1  0  0  0
 30 31  1  0  0  0
 31 32  2  0  0  0
 31 28  1  0  0  0
 28  1  1  0  0  0
  1  2  1  0  0  0
  3  2  1  0  0  0
  3  4  1  0  0  0
  4  5  2  0  0  0
  4  6  1  0  0  0
  6 18  1  0  0  0
 18 19  2  0  0  0
 19 20  1  0  0  0
 20 21  2  0  0  0
 21 22  1  0  0  0
 22 23  2  0  0  0
 23 24  1  0  0  0
 24 25  2  0  0  0
 25 26  1  0  0  0
 26 27  2  0  0  0
  6  7  1  0  0  0
  7  8  1  0  0  0
  8 34  1  0  0  0
 34 35  1  0  0  0
 35 37  1  0  0  0
 37 38  2  0  0  0
 38 39  1  0  0  0
 39 40  2  0  0  0
 40 41  1  0  0  0
 40 42  1  0  0  0
  3  9  1  0  0  0
  9 10  2  0  0  0
 10 11  1  0  0  0
 11 12  1  0  0  0
 11 13  2  0  0  0
 13 14  1  0  0  0
 14 15  2  0  0  0
 15 16  1  0  0  0
 16 17  2  0  0  0
 16  1  1  0  0  0
  8  3  1  0  0  0
 42 37  1  0  0  0
 15  9  1  0  0  0
 27 18  1  0  0  0
 27 22  1  0  0  0
 30 33  1  0  0  0
 35 36  1  0  0  0
M  END
> <minimizedAffinity>
-7.84668

> <CNNscore>
0.1752332151

> <CNNaffinity>
6.6262712479

> <CNN_VS>
1.1611428261

> <CNNaffinity_variance>
0.2146829665

$$$$



 42 47  0  0  0  0  0  0  0  0999 V2000
   -3.5193    1.8543  -23.8569 N   0  0  0  0  0  0  0  0  0  0  0  0
   -4.7771    1.6584  -23.0635 C   0  0  0  0  0  0  0  0  0  0  0  0
   -5.8944    0.8279  -23.6219 C   0  0  0  0  0  0  0  0  0  0  0  0
   -7.0900    0.0284  -24.0478 C   0  0  0  0  0  0  0  0  0  0  0  0
   -7.4747   -0.6441  -24.9838 O   0  0  0  0  0  0  0  0  0  0  0  0
   -8.1120    0.1035  -22.9524 N   0  0  0  0  0  0  0  0  0  0  0  0
   -7.5481    0.9494  -21.8495 C   0  0  0  0  0  0  0  0  0  0  0  0
   -6.1776    1.3971  -22.2633 C   0  0  0  0  0  0  0  0  0  0  0  0
   -5.7539    0.1932  -24.9738 C   0  0  0  0  0  0  0  0  0  0  0  0
   -6.8712   -0.6373  -25.5322 C   0  0  0  0  0  0  0  0  0  0  0  0
   -6.7307   -1.2719  -26.8841 C   0  0  0  0  0  0  0  0  0  0  0  0
   -7.8480   -2.1024  -27.4425 Cl  0  0  0  0  0  0  0  0  0  0  0  0
   -5.4729   -1.0760  -27.6775 C   0  0  0  0  0  0  0  0  0  0  0  0
   -4.3556   -0.2455  -27.1190 C   0  0  0  0  0  0  0  0  0  0  0  0
   -4.4961    0.3891  -25.7672 C   0  0  0  0  0  0  0  0  0  0  0  0
   -3.3788    1.2197  -25.2087 C   0  0  0  0  0  0  0  0  0  0  0  0
   -2.1210    1.4156  -26.0021 O   0  0  0  0  0  0  0  0  0  0  0  0
   -9.4611   -0.5522  -22.9588 C   0  0  0  0  0  0  0  0  0  0  0  0
   -9.5805   -2.0249  -22.7000 C   0  0  0  0  0  0  0  0  0  0  0  0
  -10.9296   -2.6806  -22.7064 N   0  0  0  0  0  0  0  0  0  0  0  0
  -12.1593   -1.8636  -22.9717 C   0  0  0  0  0  0  0  0  0  0  0  0
  -12.0399   -0.3909  -23.2306 C   0  0  0  0  0  0  0  0  0  0  0  0
  -13.2696    0.4261  -23.4959 C   0  0  0  0  0  0  0  0  0  0  0  0
  -13.1501    1.8987  -23.7547 C   0  0  0  0  0  0  0  0  0  0  0  0
  -11.8011    2.5544  -23.7483 C   0  0  0  0  0  0  0  0  0  0  0  0
  -10.5714    1.7374  -23.4830 C   0  0  0  0  0  0  0  0  0  0  0  0
  -10.6908    0.2648  -23.2241 C   0  0  0  0  0  0  0  0  0  0  0  0
   -2.4020    2.6848  -23.2984 C   0  0  0  0  0  0  0  0  0  0  0  0
    1.0955    1.8739  -21.6073 C   0  0  0  0  0  0  0  0  0  0  0  0
    0.0609    2.5054  -22.4909 N   0  0  0  0  0  0  0  0  0  0  0  0
   -1.3673    2.0533  -22.4148 C   0  0  0  0  0  0  0  0  0  0  0  0
   -1.7609    0.9696  -21.4552 O   0  0  0  0  0  0  0  0  0  0  0  0
    0.3192    3.2166  -23.1207 H   0  0  0  0  0  0  0  0  0  0  0  0
   -5.2525    2.2621  -21.4595 C   0  0  0  0  0  0  0  0  0  0  0  0
   -4.4706    1.6714  -20.3239 N   0  0  0  0  0  0  0  0  0  0  0  0
   -3.6776    2.1398  -19.9762 H   0  0  0  0  0  0  0  0  0  0  0  0
   -4.8968    0.3670  -19.7182 C   0  0  0  0  0  0  0  0  0  0  0  0
   -5.4289    0.1719  -18.3294 C   0  0  0  0  0  0  0  0  0  0  0  0
   -5.7267   -1.2869  -18.1478 N   0  0  0  0  0  0  0  0  0  0  0  0
   -5.3787   -1.9935  -19.4244 C   0  0  0  0  0  0  0  0  0  0  0  0
   -5.5190   -3.4641  -19.6847 C   0  0  0  0  0  0  0  0  0  0  0  0
   -4.8658   -0.9713  -20.3950 S   0  0  0  0  0  0  0  0  0  0  0  0
 29 30  1  0  0  0
 30 31  1  0  0  0
 31 32  2  0  0  0
 31 28  1  0  0  0
 28  1  1  0  0  0
  1  2  1  0  0  0
  3  2  1  0  0  0
  3  4  1  0  0  0
  4  5  2  0  0  0
  4  6  1  0  0  0
  6 18  1  0  0  0
 18 19  2  0  0  0
 19 20  1  0  0  0
 20 21  2  0  0  0
 21 22  1  0  0  0
 22 23  2  0  0  0
 23 24  1  0  0  0
 24 25  2  0  0  0
 25 26  1  0  0  0
 26 27  2  0  0  0
  6  7  1  0  0  0
  7  8  1  0  0  0
  8 34  1  0  0  0
 34 35  1  0  0  0
 35 37  1  0  0  0
 37 38  2  0  0  0
 38 39  1  0  0  0
 39 40  2  0  0  0
 40 41  1  0  0  0
 40 42  1  0  0  0
  3  9  1  0  0  0
  9 10  2  0  0  0
 10 11  1  0  0  0
 11 12  1  0  0  0
 11 13  2  0  0  0
 13 14  1  0  0  0
 14 15  2  0  0  0
 15 16  1  0  0  0
 16 17  2  0  0  0
 16  1  1  0  0  0
  8  3  1  0  0  0
 42 37  1  0  0  0
 15  9  1  0  0  0
 27 18  1  0  0  0
 27 22  1  0  0  0
 30 33  1  0  0  0
 35 36  1  0  0  0
M  END
> <minimizedAffinity>
-7.33665

> <CNNscore>
0.1679930240

> <CNNaffinity>
6.2138743401

> <CNN_VS>
1.0438874960

> <CNNaffinity_variance>
0.5110343099

$$$$



 42 47  0  0  0  0  0  0  0  0999 V2000
   -9.2686   -2.5154  -23.4348 N   0  0  0  0  0  0  0  0  0  0  0  0
   -8.2747   -1.3923  -23.4637 C   0  0  0  0  0  0  0  0  0  0  0  0
   -8.7506    0.0297  -23.4981 C   0  0  0  0  0  0  0  0  0  0  0  0
   -9.0753    1.4937  -23.5338 C   0  0  0  0  0  0  0  0  0  0  0  0
  -10.0392    2.2333  -23.5508 O   0  0  0  0  0  0  0  0  0  0  0  0
   -7.7829    2.2548  -23.5541 N   0  0  0  0  0  0  0  0  0  0  0  0
   -6.6594    1.2612  -23.5310 C   0  0  0  0  0  0  0  0  0  0  0  0
   -7.2575   -0.1140  -23.4964 C   0  0  0  0  0  0  0  0  0  0  0  0
  -10.2206    0.3288  -23.5037 C   0  0  0  0  0  0  0  0  0  0  0  0
  -10.6965    1.7508  -23.5381 C   0  0  0  0  0  0  0  0  0  0  0  0
  -12.1664    2.0497  -23.5436 C   0  0  0  0  0  0  0  0  0  0  0  0
  -12.6424    3.4718  -23.5781 Cl  0  0  0  0  0  0  0  0  0  0  0  0
  -13.1603    0.9267  -23.5148 C   0  0  0  0  0  0  0  0  0  0  0  0
  -12.6843   -0.4954  -23.4804 C   0  0  0  0  0  0  0  0  0  0  0  0
  -11.2145   -0.7943  -23.4748 C   0  0  0  0  0  0  0  0  0  0  0  0
  -10.7384   -2.2164  -23.4404 C   0  0  0  0  0  0  0  0  0  0  0  0
  -11.7324   -3.3395  -23.4115 O   0  0  0  0  0  0  0  0  0  0  0  0
   -7.6392    3.7475  -23.5910 C   0  0  0  0  0  0  0  0  0  0  0  0
   -7.2474    4.4942  -22.3505 C   0  0  0  0  0  0  0  0  0  0  0  0
   -7.1037    5.9868  -22.3874 N   0  0  0  0  0  0  0  0  0  0  0  0
   -7.3518    6.7327  -23.6649 C   0  0  0  0  0  0  0  0  0  0  0  0
   -7.7435    5.9860  -24.9055 C   0  0  0  0  0  0  0  0  0  0  0  0
   -7.9916    6.7321  -26.1830 C   0  0  0  0  0  0  0  0  0  0  0  0
   -8.3833    5.9853  -27.4235 C   0  0  0  0  0  0  0  0  0  0  0  0
   -8.5270    4.4926  -27.3866 C   0  0  0  0  0  0  0  0  0  0  0  0
   -8.2790    3.7467  -26.1091 C   0  0  0  0  0  0  0  0  0  0  0  0
   -7.8872    4.4934  -24.8685 C   0  0  0  0  0  0  0  0  0  0  0  0
   -8.7926   -3.9375  -23.4004 C   0  0  0  0  0  0  0  0  0  0  0  0
   -9.9643   -5.7062  -26.7543 C   0  0  0  0  0  0  0  0  0  0  0  0
   -9.9987   -4.8961  -25.4924 N   0  0  0  0  0  0  0  0  0  0  0  0
   -8.7581   -4.7476  -24.6624 C   0  0  0  0  0  0  0  0  0  0  0  0
   -7.4831   -5.4093  -25.0943 O   0  0  0  0  0  0  0  0  0  0  0  0
  -10.8355   -4.4618  -25.2089 H   0  0  0  0  0  0  0  0  0  0  0  0
   -6.4962   -1.4060  -23.4656 C   0  0  0  0  0  0  0  0  0  0  0  0
   -5.2550   -1.5255  -22.6319 N   0  0  0  0  0  0  0  0  0  0  0  0
   -4.3820   -1.6628  -23.0658 H   0  0  0  0  0  0  0  0  0  0  0  0
   -5.3438   -1.4357  -21.1373 C   0  0  0  0  0  0  0  0  0  0  0  0
   -5.6204   -2.5741  -20.2005 C   0  0  0  0  0  0  0  0  0  0  0  0
   -5.6192   -2.0337  -18.8013 N   0  0  0  0  0  0  0  0  0  0  0  0
   -5.3418   -0.5613  -18.8732 C   0  0  0  0  0  0  0  0  0  0  0  0
   -5.2505    0.3767  -17.7063 C   0  0  0  0  0  0  0  0  0  0  0  0
   -5.1716   -0.1917  -20.3170 S   0  0  0  0  0  0  0  0  0  0  0  0
 29 30  1  0  0  0
 30 31  1  0  0  0
 31 32  2  0  0  0
 31 28  1  0  0  0
 28  1  1  0  0  0
  1  2  1  0  0  0
  3  2  1  0  0  0
  3  4  1  0  0  0
  4  5  2  0  0  0
  4  6  1  0  0  0
  6 18  1  0  0  0
 18 19  2  0  0  0
 19 20  1  0  0  0
 20 21  2  0  0  0
 21 22  1  0  0  0
 22 23  2  0  0  0
 23 24  1  0  0  0
 24 25  2  0  0  0
 25 26  1  0  0  0
 26 27  2  0  0  0
  6  7  1  0  0  0
  7  8  1  0  0  0
  8 34  1  0  0  0
 34 35  1  0  0  0
 35 37  1  0  0  0
 37 38  2  0  0  0
 38 39  1  0  0  0
 39 40  2  0  0  0
 40 41  1  0  0  0
 40 42  1  0  0  0
  3  9  1  0  0  0
  9 10  2  0  0  0
 10 11  1  0  0  0
 11 12  1  0  0  0
 11 13  2  0  0  0
 13 14  1  0  0  0
 14 15  2  0  0  0
 15 16  1  0  0  0
 16 17  2  0  0  0
 16  1  1  0  0  0
  8  3  1  0  0  0
 42 37  1  0  0  0
 15  9  1  0  0  0
 27 18  1  0  0  0
 27 22  1  0  0  0
 30 33  1  0  0  0
 35 36  1  0  0  0
M  END
> <minimizedAffinity>
-8.34237

> <CNNscore>
0.1601054370

> <CNNaffinity>
6.4648580551

> <CNN_VS>
1.0350589752

> <CNNaffinity_variance>
0.7090065479

$$$$
