


 35 40  0  0  0  0  0  0  0  0999 V2000
    7.5374   -3.3178   23.4921 C   0  0  0  0  0  0  0  0  0  0  0  0
    7.7477   -2.0480   22.7217 C   0  0  0  0  0  0  0  0  0  0  0  0
    6.6510   -1.8059   21.7273 C   0  0  0  0  0  0  0  0  0  0  0  0
    6.9492   -0.5216   21.0120 N   0  0  0  0  0  0  0  0  0  0  0  0
    8.2301    0.0300   21.5643 C   0  0  0  0  0  0  0  0  0  0  0  0
    8.8999    1.3017   21.1352 O   0  0  0  0  0  0  0  0  0  0  0  0
    8.7236   -0.9133   22.6210 C   0  0  0  0  0  0  0  0  0  0  0  0
    9.6068    0.2802   22.4081 C   0  0  0  0  0  0  0  0  0  0  0  0
   10.8567    0.4430   23.2212 N   0  0  0  0  0  0  0  0  0  0  0  0
   11.2234   -0.5879   24.2473 C   0  0  0  0  0  0  0  0  0  0  0  0
   12.4734   -0.4251   25.0604 O   0  0  0  0  0  0  0  0  0  0  0  0
   10.3403   -1.7815   24.4602 C   0  0  0  0  0  0  0  0  0  0  0  0
   10.7070   -2.8123   25.4863 C   0  0  0  0  0  0  0  0  0  0  0  0
    9.8239   -4.0059   25.6992 C   0  0  0  0  0  0  0  0  0  0  0  0
    8.5739   -4.1686   24.8861 C   0  0  0  0  0  0  0  0  0  0  0  0
    7.6907   -5.3623   25.0990 F   0  0  0  0  0  0  0  0  0  0  0  0
    8.2072   -3.1378   23.8600 C   0  0  0  0  0  0  0  0  0  0  0  0
    9.0903   -1.9442   23.6471 C   0  0  0  0  0  0  0  0  0  0  0  0
    6.1133    0.1016   19.9337 C   0  0  0  0  0  0  0  0  0  0  0  0
    6.5085   -0.0524   18.4950 C   0  0  0  0  0  0  0  0  0  0  0  0
    5.6726    0.5708   17.4167 N   0  0  0  0  0  0  0  0  0  0  0  0
    4.4414    1.3481   17.7772 C   0  0  0  0  0  0  0  0  0  0  0  0
    4.0461    1.5021   19.2159 C   0  0  0  0  0  0  0  0  0  0  0  0
    2.8148    2.2795   19.5764 C   0  0  0  0  0  0  0  0  0  0  0  0
    2.4196    2.4334   21.0152 C   0  0  0  0  0  0  0  0  0  0  0  0
    3.2556    1.8102   22.0934 C   0  0  0  0  0  0  0  0  0  0  0  0
    4.4868    1.0329   21.7329 C   0  0  0  0  0  0  0  0  0  0  0  0
    4.8820    0.8789   20.2943 C   0  0  0  0  0  0  0  0  0  0  0  0
   11.7399    1.6366   23.0082 C   0  0  0  0  0  0  0  0  0  0  0  0
   11.1413    3.0104   22.9430 C   0  0  0  0  0  0  0  0  0  0  0  0
    9.7001    3.3561   23.1746 C   0  0  0  0  0  0  0  0  0  0  0  0
    9.5469    4.8390   23.0095 C   0  0  0  0  0  0  0  0  0  0  0  0
   10.8933    5.4100   22.6758 N   0  0  0  0  0  0  0  0  0  0  0  0
   11.2004    6.8569   22.4269 C   0  0  0  0  0  0  0  0  0  0  0  0
   11.8787    4.2798   22.6347 N   0  0  0  0  0  0  0  0  0  0  0  0
  2  1  1  0  0  0
  2  3  1  0  0  0
  3  4  1  0  0  0
  4 19  1  0  0  0
 19 20  2  0  0  0
 20 21  1  0  0  0
 21 22  2  0  0  0
 22 23  1  0  0  0
 23 24  2  0  0  0
 24 25  1  0  0  0
 25 26  2  0  0  0
 26 27  1  0  0  0
 27 28  2  0  0  0
  4  5  1  0  0  0
  5  6  2  0  0  0
  5  7  1  0  0  0
  7  8  1  0  0  0
  8  9  1  0  0  0
  9 29  1  0  0  0
 29 30  1  0  0  0
 30 31  1  0  0  0
 31 32  2  0  0  0
 32 33  1  0  0  0
 33 34  1  0  0  0
 33 35  1  0  0  0
  9 10  1  0  0  0
 10 11  2  0  0  0
 10 12  1  0  0  0
 12 13  2  0  0  0
 13 14  1  0  0  0
 14 15  2  0  0  0
 15 16  1  0  0  0
 15 17  1  0  0  0
 17 18  2  0  0  0
  7  2  1  0  0  0
 35 30  2  0  0  0
 18 12  1  0  0  0
 28 19  1  0  0  0
 18  7  1  0  0  0
 28 23  1  0  0  0
M  END
> <minimizedAffinity>
-9.75668

> <CNNscore>
0.7304737568

> <CNNaffinity>
7.0237073898

> <CNN_VS>
5.1306338310

> <CNNaffinity_variance>
0.0429642089

$$$$



 35 40  0  0  0  0  0  0  0  0999 V2000
    9.1574   -0.9109   23.6828 C   0  0  0  0  0  0  0  0  0  0  0  0
    7.9926   -1.3124   22.8271 C   0  0  0  0  0  0  0  0  0  0  0  0
    7.5953   -0.2252   21.8730 C   0  0  0  0  0  0  0  0  0  0  0  0
    6.4304   -0.7188   21.0671 N   0  0  0  0  0  0  0  0  0  0  0  0
    6.1079   -2.1109   21.5230 C   0  0  0  0  0  0  0  0  0  0  0  0
    5.0122   -2.9831   20.9856 O   0  0  0  0  0  0  0  0  0  0  0  0
    7.0734   -2.4778   22.6108 C   0  0  0  0  0  0  0  0  0  0  0  0
    6.0843   -3.5569   22.2835 C   0  0  0  0  0  0  0  0  0  0  0  0
    6.1237   -4.8604   23.0247 N   0  0  0  0  0  0  0  0  0  0  0  0
    7.1521   -5.0847   24.0934 C   0  0  0  0  0  0  0  0  0  0  0  0
    7.1914   -6.3881   24.8347 O   0  0  0  0  0  0  0  0  0  0  0  0
    8.1412   -4.0055   24.4208 C   0  0  0  0  0  0  0  0  0  0  0  0
    9.1696   -4.2298   25.4894 C   0  0  0  0  0  0  0  0  0  0  0  0
   10.1587   -3.1507   25.8167 C   0  0  0  0  0  0  0  0  0  0  0  0
   10.1194   -1.8473   25.0754 C   0  0  0  0  0  0  0  0  0  0  0  0
   11.1085   -0.7681   25.4028 F   0  0  0  0  0  0  0  0  0  0  0  0
    9.0910   -1.6230   24.0068 C   0  0  0  0  0  0  0  0  0  0  0  0
    8.1019   -2.7021   23.6795 C   0  0  0  0  0  0  0  0  0  0  0  0
    5.7139    0.0456   19.9936 C   0  0  0  0  0  0  0  0  0  0  0  0
    6.1913   -0.0292   18.5737 C   0  0  0  0  0  0  0  0  0  0  0  0
    5.4748    0.7352   17.5002 N   0  0  0  0  0  0  0  0  0  0  0  0
    4.2808    1.5744   17.8468 C   0  0  0  0  0  0  0  0  0  0  0  0
    3.8034    1.6492   19.2668 C   0  0  0  0  0  0  0  0  0  0  0  0
    2.6094    2.4885   19.6134 C   0  0  0  0  0  0  0  0  0  0  0  0
    2.1320    2.5633   21.0335 C   0  0  0  0  0  0  0  0  0  0  0  0
    2.8485    1.7989   22.1068 C   0  0  0  0  0  0  0  0  0  0  0  0
    4.0425    0.9597   21.7602 C   0  0  0  0  0  0  0  0  0  0  0  0
    4.5199    0.8848   20.3403 C   0  0  0  0  0  0  0  0  0  0  0  0
    5.1345   -5.9395   22.6974 C   0  0  0  0  0  0  0  0  0  0  0  0
    3.8756   -6.0723   23.5021 C   0  0  0  0  0  0  0  0  0  0  0  0
    2.5991   -6.7122   23.0428 C   0  0  0  0  0  0  0  0  0  0  0  0
    1.6068   -6.6238   24.1642 C   0  0  0  0  0  0  0  0  0  0  0  0
    2.2701   -5.9293   25.3165 N   0  0  0  0  0  0  0  0  0  0  0  0
    1.6415   -5.6285   26.6448 C   0  0  0  0  0  0  0  0  0  0  0  0
    3.6723   -5.5885   24.9073 N   0  0  0  0  0  0  0  0  0  0  0  0
  2  1  1  0  0  0
  2  3  1  0  0  0
  3  4  1  0  0  0
  4 19  1  0  0  0
 19 20  2  0  0  0
 20 21  1  0  0  0
 21 22  2  0  0  0
 22 23  1  0  0  0
 23 24  2  0  0  0
 24 25  1  0  0  0
 25 26  2  0  0  0
 26 27  1  0  0  0
 27 28  2  0  0  0
  4  5  1  0  0  0
  5  6  2  0  0  0
  5  7  1  0  0  0
  7  8  1  0  0  0
  8  9  1  0  0  0
  9 29  1  0  0  0
 29 30  1  0  0  0
 30 31  1  0  0  0
 31 32  2  0  0  0
 32 33  1  0  0  0
 33 34  1  0  0  0
 33 35  1  0  0  0
  9 10  1  0  0  0
 10 11  2  0  0  0
 10 12  1  0  0  0
 12 13  2  0  0  0
 13 14  1  0  0  0
 14 15  2  0  0  0
 15 16  1  0  0  0
 15 17  1  0  0  0
 17 18  2  0  0  0
  7  2  1  0  0  0
 35 30  2  0  0  0
 18 12  1  0  0  0
 28 19  1  0  0  0
 18  7  1  0  0  0
 28 23  1  0  0  0
M  END
> <minimizedAffinity>
-8.35660

> <CNNscore>
0.4780249894

> <CNNaffinity>
6.5704269409

> <CNN_VS>
3.1408283710

> <CNNaffinity_variance>
0.0151969315

$$$$



 35 40  0  0  0  0  0  0  0  0999 V2000
   10.9521   -3.2727   26.3667 C   0  0  0  0  0  0  0  0  0  0  0  0
    9.6133   -2.9615   25.7659 C   0  0  0  0  0  0  0  0  0  0  0  0
    8.5211   -3.7983   26.3634 C   0  0  0  0  0  0  0  0  0  0  0  0
    7.2300   -3.4162   25.7023 N   0  0  0  0  0  0  0  0  0  0  0  0
    7.5243   -2.3433   24.6961 C   0  0  0  0  0  0  0  0  0  0  0  0
    6.5217   -1.6696   23.8068 O   0  0  0  0  0  0  0  0  0  0  0  0
    8.9972   -2.0623   24.7354 C   0  0  0  0  0  0  0  0  0  0  0  0
    8.2436   -1.2294   23.7413 C   0  0  0  0  0  0  0  0  0  0  0  0
    8.9725   -0.2254   22.8982 N   0  0  0  0  0  0  0  0  0  0  0  0
   10.4550   -0.0544   23.0493 C   0  0  0  0  0  0  0  0  0  0  0  0
   11.1839    0.9496   22.2062 O   0  0  0  0  0  0  0  0  0  0  0  0
   11.2087   -0.8873   24.0434 C   0  0  0  0  0  0  0  0  0  0  0  0
   12.6912   -0.7162   24.1945 C   0  0  0  0  0  0  0  0  0  0  0  0
   13.4449   -1.5491   25.1886 C   0  0  0  0  0  0  0  0  0  0  0  0
   12.7160   -2.5531   26.0317 C   0  0  0  0  0  0  0  0  0  0  0  0
   13.4697   -3.3860   27.0258 F   0  0  0  0  0  0  0  0  0  0  0  0
   11.2335   -2.7241   25.8806 C   0  0  0  0  0  0  0  0  0  0  0  0
   10.4798   -1.8912   24.8865 C   0  0  0  0  0  0  0  0  0  0  0  0
    5.8815   -4.0037   25.9957 C   0  0  0  0  0  0  0  0  0  0  0  0
    5.1495   -4.7689   24.9333 C   0  0  0  0  0  0  0  0  0  0  0  0
    3.8010   -5.3564   25.2268 N   0  0  0  0  0  0  0  0  0  0  0  0
    3.1844   -5.1789   26.5826 C   0  0  0  0  0  0  0  0  0  0  0  0
    3.9164   -4.4137   27.6450 C   0  0  0  0  0  0  0  0  0  0  0  0
    3.2998   -4.2361   29.0009 C   0  0  0  0  0  0  0  0  0  0  0  0
    4.0319   -3.4709   30.0632 C   0  0  0  0  0  0  0  0  0  0  0  0
    5.3804   -2.8834   29.7697 C   0  0  0  0  0  0  0  0  0  0  0  0
    5.9969   -3.0610   28.4139 C   0  0  0  0  0  0  0  0  0  0  0  0
    5.2650   -3.8261   27.3516 C   0  0  0  0  0  0  0  0  0  0  0  0
    8.2188    0.6075   21.9041 C   0  0  0  0  0  0  0  0  0  0  0  0
    7.8047    2.0052   22.2574 C   0  0  0  0  0  0  0  0  0  0  0  0
    8.3519    2.8282   23.3857 C   0  0  0  0  0  0  0  0  0  0  0  0
    7.6561    4.1570   23.3701 C   0  0  0  0  0  0  0  0  0  0  0  0
    6.6789    4.1552   22.2320 N   0  0  0  0  0  0  0  0  0  0  0  0
    5.7695    5.2849   21.8490 C   0  0  0  0  0  0  0  0  0  0  0  0
    6.7707    2.8253   21.5444 N   0  0  0  0  0  0  0  0  0  0  0  0
  2  1  1  0  0  0
  2  3  1  0  0  0
  3  4  1  0  0  0
  4 19  1  0  0  0
 19 20  2  0  0  0
 20 21  1  0  0  0
 21 22  2  0  0  0
 22 23  1  0  0  0
 23 24  2  0  0  0
 24 25  1  0  0  0
 25 26  2  0  0  0
 26 27  1  0  0  0
 27 28  2  0  0  0
  4  5  1  0  0  0
  5  6  2  0  0  0
  5  7  1  0  0  0
  7  8  1  0  0  0
  8  9  1  0  0  0
  9 29  1  0  0  0
 29 30  1  0  0  0
 30 31  1  0  0  0
 31 32  2  0  0  0
 32 33  1  0  0  0
 33 34  1  0  0  0
 33 35  1  0  0  0
  9 10  1  0  0  0
 10 11  2  0  0  0
 10 12  1  0  0  0
 12 13  2  0  0  0
 13 14  1  0  0  0
 14 15  2  0  0  0
 15 16  1  0  0  0
 15 17  1  0  0  0
 17 18  2  0  0  0
  7  2  1  0  0  0
 35 30  2  0  0  0
 18 12  1  0  0  0
 28 19  1  0  0  0
 18  7  1  0  0  0
 28 23  1  0  0  0
M  END
> <minimizedAffinity>
-8.02829

> <CNNscore>
0.4747735262

> <CNNaffinity>
6.7012839317

> <CNN_VS>
3.1815922260

> <CNNaffinity_variance>
0.1499464214

$$$$



 35 40  0  0  0  0  0  0  0  0999 V2000
   11.0012   -3.4036   25.9931 C   0  0  0  0  0  0  0  0  0  0  0  0
    9.6271   -2.9639   25.5826 C   0  0  0  0  0  0  0  0  0  0  0  0
    8.5619   -3.8711   26.1232 C   0  0  0  0  0  0  0  0  0  0  0  0
    7.2326   -3.3518   25.6614 N   0  0  0  0  0  0  0  0  0  0  0  0
    7.4763   -2.1237   24.8354 C   0  0  0  0  0  0  0  0  0  0  0  0
    6.4246   -1.2830   24.1741 O   0  0  0  0  0  0  0  0  0  0  0  0
    8.9562   -1.8839   24.7866 C   0  0  0  0  0  0  0  0  0  0  0  0
    8.1490   -0.8730   24.0274 C   0  0  0  0  0  0  0  0  0  0  0  0
    8.8371    0.2496   23.3089 N   0  0  0  0  0  0  0  0  0  0  0  0
   10.3324    0.3613   23.3496 C   0  0  0  0  0  0  0  0  0  0  0  0
   11.0205    1.4839   22.6311 O   0  0  0  0  0  0  0  0  0  0  0  0
   11.1396   -0.6497   24.1088 C   0  0  0  0  0  0  0  0  0  0  0  0
   12.6349   -0.5381   24.1495 C   0  0  0  0  0  0  0  0  0  0  0  0
   13.4420   -1.5491   24.9086 C   0  0  0  0  0  0  0  0  0  0  0  0
   12.7539   -2.6717   25.6271 C   0  0  0  0  0  0  0  0  0  0  0  0
   13.5611   -3.6827   26.3864 F   0  0  0  0  0  0  0  0  0  0  0  0
   11.2587   -2.7833   25.5865 C   0  0  0  0  0  0  0  0  0  0  0  0
   10.4515   -1.7723   24.8273 C   0  0  0  0  0  0  0  0  0  0  0  0
    5.8945   -3.9548   25.9713 C   0  0  0  0  0  0  0  0  0  0  0  0
    5.1529   -4.7180   24.9142 C   0  0  0  0  0  0  0  0  0  0  0  0
    3.8149   -5.3209   25.2240 N   0  0  0  0  0  0  0  0  0  0  0  0
    3.2185   -5.1607   26.5910 C   0  0  0  0  0  0  0  0  0  0  0  0
    3.9601   -4.3975   27.6481 C   0  0  0  0  0  0  0  0  0  0  0  0
    3.3637   -4.2373   29.0151 C   0  0  0  0  0  0  0  0  0  0  0  0
    4.1054   -3.4741   30.0722 C   0  0  0  0  0  0  0  0  0  0  0  0
    5.4434   -2.8712   29.7623 C   0  0  0  0  0  0  0  0  0  0  0  0
    6.0398   -3.0314   28.3953 C   0  0  0  0  0  0  0  0  0  0  0  0
    5.2982   -3.7945   27.3383 C   0  0  0  0  0  0  0  0  0  0  0  0
    8.0299    1.2607   22.5497 C   0  0  0  0  0  0  0  0  0  0  0  0
    7.2893    0.8519   21.3110 C   0  0  0  0  0  0  0  0  0  0  0  0
    7.6662   -0.2686   20.3878 C   0  0  0  0  0  0  0  0  0  0  0  0
    6.6517   -0.3211   19.2842 C   0  0  0  0  0  0  0  0  0  0  0  0
    5.6477    0.7670   19.5253 N   0  0  0  0  0  0  0  0  0  0  0  0
    4.4585    1.0759   18.6649 C   0  0  0  0  0  0  0  0  0  0  0  0
    6.0418    1.4920   20.7780 N   0  0  0  0  0  0  0  0  0  0  0  0
  2  1  1  0  0  0
  2  3  1  0  0  0
  3  4  1  0  0  0
  4 19  1  0  0  0
 19 20  2  0  0  0
 20 21  1  0  0  0
 21 22  2  0  0  0
 22 23  1  0  0  0
 23 24  2  0  0  0
 24 25  1  0  0  0
 25 26  2  0  0  0
 26 27  1  0  0  0
 27 28  2  0  0  0
  4  5  1  0  0  0
  5  6  2  0  0  0
  5  7  1  0  0  0
  7  8  1  0  0  0
  8  9  1  0  0  0
  9 29  1  0  0  0
 29 30  1  0  0  0
 30 31  1  0  0  0
 31 32  2  0  0  0
 32 33  1  0  0  0
 33 34  1  0  0  0
 33 35  1  0  0  0
  9 10  1  0  0  0
 10 11  2  0  0  0
 10 12  1  0  0  0
 12 13  2  0  0  0
 13 14  1  0  0  0
 14 15  2  0  0  0
 15 16  1  0  0  0
 15 17  1  0  0  0
 17 18  2  0  0  0
  7  2  1  0  0  0
 35 30  2  0  0  0
 18 12  1  0  0  0
 28 19  1  0  0  0
 18  7  1  0  0  0
 28 23  1  0  0  0
M  END
> <minimizedAffinity>
-8.91037

> <CNNscore>
0.3558039367

> <CNNaffinity>
6.5354146957

> <CNN_VS>
2.3253262043

> <CNNaffinity_variance>
0.1176427603

$$$$



 35 40  0  0  0  0  0  0  0  0999 V2000
   10.3512   -2.7974   26.1532 C   0  0  0  0  0  0  0  0  0  0  0  0
    9.2250   -1.8952   25.7436 C   0  0  0  0  0  0  0  0  0  0  0  0
    7.9144   -2.3314   26.3285 C   0  0  0  0  0  0  0  0  0  0  0  0
    6.8578   -1.3731   25.8644 N   0  0  0  0  0  0  0  0  0  0  0  0
    7.5154   -0.3447   24.9926 C   0  0  0  0  0  0  0  0  0  0  0  0
    6.8303    0.8045   24.3146 O   0  0  0  0  0  0  0  0  0  0  0  0
    8.9784   -0.6674   24.9180 C   0  0  0  0  0  0  0  0  0  0  0  0
    8.5808    0.5475   24.1331 C   0  0  0  0  0  0  0  0  0  0  0  0
    9.6155    1.3174   23.3673 N   0  0  0  0  0  0  0  0  0  0  0  0
   11.0479    0.8726   23.3863 C   0  0  0  0  0  0  0  0  0  0  0  0
   12.0826    1.6426   22.6205 O   0  0  0  0  0  0  0  0  0  0  0  0
   11.4456   -0.3423   24.1712 C   0  0  0  0  0  0  0  0  0  0  0  0
   12.8779   -0.7871   24.1903 C   0  0  0  0  0  0  0  0  0  0  0  0
   13.2756   -2.0020   24.9751 C   0  0  0  0  0  0  0  0  0  0  0  0
   12.2408   -2.7719   25.7409 C   0  0  0  0  0  0  0  0  0  0  0  0
   12.6385   -3.9868   26.5258 F   0  0  0  0  0  0  0  0  0  0  0  0
   10.8085   -2.3271   25.7219 C   0  0  0  0  0  0  0  0  0  0  0  0
   10.4109   -1.1123   24.9370 C   0  0  0  0  0  0  0  0  0  0  0  0
    5.3997   -1.4328   26.2111 C   0  0  0  0  0  0  0  0  0  0  0  0
    4.4199   -0.5590   25.4856 C   0  0  0  0  0  0  0  0  0  0  0  0
    2.9618   -0.6186   25.8324 N   0  0  0  0  0  0  0  0  0  0  0  0
    2.4835   -1.5522   26.9046 C   0  0  0  0  0  0  0  0  0  0  0  0
    3.4633   -2.4260   27.6301 C   0  0  0  0  0  0  0  0  0  0  0  0
    2.9849   -3.3596   28.7024 C   0  0  0  0  0  0  0  0  0  0  0  0
    3.9648   -4.2334   29.4279 C   0  0  0  0  0  0  0  0  0  0  0  0
    5.4229   -4.1737   29.0811 C   0  0  0  0  0  0  0  0  0  0  0  0
    5.9012   -3.2401   28.0089 C   0  0  0  0  0  0  0  0  0  0  0  0
    4.9214   -2.3664   27.2834 C   0  0  0  0  0  0  0  0  0  0  0  0
    9.2178    2.5323   22.5824 C   0  0  0  0  0  0  0  0  0  0  0  0
    7.8292    2.6446   22.0264 C   0  0  0  0  0  0  0  0  0  0  0  0
    6.8264    3.7069   22.3667 C   0  0  0  0  0  0  0  0  0  0  0  0
    5.5771    3.4331   21.5831 C   0  0  0  0  0  0  0  0  0  0  0  0
    5.8077    2.2015   20.7583 N   0  0  0  0  0  0  0  0  0  0  0  0
    4.8199    1.5685   19.8238 C   0  0  0  0  0  0  0  0  0  0  0  0
    7.1996    1.7142   21.0323 N   0  0  0  0  0  0  0  0  0  0  0  0
  2  1  1  0  0  0
  2  3  1  0  0  0
  3  4  1  0  0  0
  4 19  1  0  0  0
 19 20  2  0  0  0
 20 21  1  0  0  0
 21 22  2  0  0  0
 22 23  1  0  0  0
 23 24  2  0  0  0
 24 25  1  0  0  0
 25 26  2  0  0  0
 26 27  1  0  0  0
 27 28  2  0  0  0
  4  5  1  0  0  0
  5  6  2  0  0  0
  5  7  1  0  0  0
  7  8  1  0  0  0
  8  9  1  0  0  0
  9 29  1  0  0  0
 29 30  1  0  0  0
 30 31  1  0  0  0
 31 32  2  0  0  0
 32 33  1  0  0  0
 33 34  1  0  0  0
 33 35  1  0  0  0
  9 10  1  0  0  0
 10 11  2  0  0  0
 10 12  1  0  0  0
 12 13  2  0  0  0
 13 14  1  0  0  0
 14 15  2  0  0  0
 15 16  1  0  0  0
 15 17  1  0  0  0
 17 18  2  0  0  0
  7  2  1  0  0  0
 35 30  2  0  0  0
 18 12  1  0  0  0
 28 19  1  0  0  0
 18  7  1  0  0  0
 28 23  1  0  0  0
M  END
> <minimizedAffinity>
-8.21265

> <CNNscore>
0.3224578798

> <CNNaffinity>
6.5105462074

> <CNN_VS>
2.0993769169

> <CNNaffinity_variance>
0.1218613610

$$$$



 35 40  0  0  0  0  0  0  0  0999 V2000
    7.2205    0.1238   20.1759 C   0  0  0  0  0  0  0  0  0  0  0  0
    7.5866    0.0502   21.6287 C   0  0  0  0  0  0  0  0  0  0  0  0
    9.0050   -0.3947   21.8289 C   0  0  0  0  0  0  0  0  0  0  0  0
    9.2738   -0.4367   23.3041 N   0  0  0  0  0  0  0  0  0  0  0  0
    8.0214   -0.0177   24.0155 C   0  0  0  0  0  0  0  0  0  0  0  0
    7.8432    0.0827   25.5015 O   0  0  0  0  0  0  0  0  0  0  0  0
    6.9787    0.2833   22.9801 C   0  0  0  0  0  0  0  0  0  0  0  0
    6.5094    0.4740   24.3919 C   0  0  0  0  0  0  0  0  0  0  0  0
    5.1053    0.9282   24.6607 N   0  0  0  0  0  0  0  0  0  0  0  0
    4.1705    1.1917   23.5176 C   0  0  0  0  0  0  0  0  0  0  0  0
    2.7664    1.6459   23.7863 O   0  0  0  0  0  0  0  0  0  0  0  0
    4.6398    1.0010   22.1057 C   0  0  0  0  0  0  0  0  0  0  0  0
    3.7050    1.2644   20.9626 C   0  0  0  0  0  0  0  0  0  0  0  0
    4.1743    1.0737   19.5507 C   0  0  0  0  0  0  0  0  0  0  0  0
    5.5784    0.6195   19.2820 C   0  0  0  0  0  0  0  0  0  0  0  0
    6.0477    0.4288   17.8700 F   0  0  0  0  0  0  0  0  0  0  0  0
    6.5132    0.3560   20.4251 C   0  0  0  0  0  0  0  0  0  0  0  0
    6.0439    0.5467   21.8369 C   0  0  0  0  0  0  0  0  0  0  0  0
   10.5676   -0.8289   23.9537 C   0  0  0  0  0  0  0  0  0  0  0  0
   11.7868    0.0261   23.7733 C   0  0  0  0  0  0  0  0  0  0  0  0
   13.0807   -0.3661   24.4230 N   0  0  0  0  0  0  0  0  0  0  0  0
   13.1553   -1.6132   25.2531 C   0  0  0  0  0  0  0  0  0  0  0  0
   11.9361   -2.4682   25.4335 C   0  0  0  0  0  0  0  0  0  0  0  0
   12.0108   -3.7154   26.2636 C   0  0  0  0  0  0  0  0  0  0  0  0
   10.7916   -4.5704   26.4439 C   0  0  0  0  0  0  0  0  0  0  0  0
    9.4978   -4.1782   25.7942 C   0  0  0  0  0  0  0  0  0  0  0  0
    9.4231   -2.9310   24.9642 C   0  0  0  0  0  0  0  0  0  0  0  0
   10.6422   -2.0761   24.7838 C   0  0  0  0  0  0  0  0  0  0  0  0
    4.6360    1.1189   26.0726 C   0  0  0  0  0  0  0  0  0  0  0  0
    4.8384    0.0297   27.0838 C   0  0  0  0  0  0  0  0  0  0  0  0
    5.2831    0.2167   28.5041 C   0  0  0  0  0  0  0  0  0  0  0  0
    5.3512   -1.1352   29.1504 C   0  0  0  0  0  0  0  0  0  0  0  0
    4.9485   -2.1578   28.1295 N   0  0  0  0  0  0  0  0  0  0  0  0
    4.8756   -3.6401   28.3475 C   0  0  0  0  0  0  0  0  0  0  0  0
    4.6316   -1.4379   26.8523 N   0  0  0  0  0  0  0  0  0  0  0  0
  2  1  1  0  0  0
  2  3  1  0  0  0
  3  4  1  0  0  0
  4 19  1  0  0  0
 19 20  2  0  0  0
 20 21  1  0  0  0
 21 22  2  0  0  0
 22 23  1  0  0  0
 23 24  2  0  0  0
 24 25  1  0  0  0
 25 26  2  0  0  0
 26 27  1  0  0  0
 27 28  2  0  0  0
  4  5  1  0  0  0
  5  6  2  0  0  0
  5  7  1  0  0  0
  7  8  1  0  0  0
  8  9  1  0  0  0
  9 29  1  0  0  0
 29 30  1  0  0  0
 30 31  1  0  0  0
 31 32  2  0  0  0
 32 33  1  0  0  0
 33 34  1  0  0  0
 33 35  1  0  0  0
  9 10  1  0  0  0
 10 11  2  0  0  0
 10 12  1  0  0  0
 12 13  2  0  0  0
 13 14  1  0  0  0
 14 15  2  0  0  0
 15 16  1  0  0  0
 15 17  1  0  0  0
 17 18  2  0  0  0
  7  2  1  0  0  0
 35 30  2  0  0  0
 18 12  1  0  0  0
 28 19  1  0  0  0
 18  7  1  0  0  0
 28 23  1  0  0  0
M  END
> <minimizedAffinity>
-8.41482

> <CNNscore>
0.3054258823

> <CNNaffinity>
6.4040999413

> <CNN_VS>
1.9559779167

> <CNNaffinity_variance>
0.1137163490

$$$$



 35 40  0  0  0  0  0  0  0  0999 V2000
   10.6938   -3.7203   25.6366 C   0  0  0  0  0  0  0  0  0  0  0  0
    9.5073   -3.4014   24.7759 C   0  0  0  0  0  0  0  0  0  0  0  0
    8.4403   -4.4505   24.8789 C   0  0  0  0  0  0  0  0  0  0  0  0
    7.3036   -4.0445   23.9884 N   0  0  0  0  0  0  0  0  0  0  0  0
    7.6682   -2.7444   23.3350 C   0  0  0  0  0  0  0  0  0  0  0  0
    6.8197   -1.9767   22.3652 O   0  0  0  0  0  0  0  0  0  0  0  0
    9.0302   -2.3469   23.8217 C   0  0  0  0  0  0  0  0  0  0  0  0
    8.4221   -1.3778   22.8517 C   0  0  0  0  0  0  0  0  0  0  0  0
    9.1748   -0.1427   22.4541 N   0  0  0  0  0  0  0  0  0  0  0  0
   10.5355    0.1232   23.0265 C   0  0  0  0  0  0  0  0  0  0  0  0
   11.2882    1.3583   22.6288 O   0  0  0  0  0  0  0  0  0  0  0  0
   11.1436   -0.8460   23.9965 C   0  0  0  0  0  0  0  0  0  0  0  0
   12.5044   -0.5800   24.5689 C   0  0  0  0  0  0  0  0  0  0  0  0
   13.1124   -1.5492   25.5390 C   0  0  0  0  0  0  0  0  0  0  0  0
   12.3597   -2.7842   25.9366 C   0  0  0  0  0  0  0  0  0  0  0  0
   12.9679   -3.7534   26.9067 F   0  0  0  0  0  0  0  0  0  0  0  0
   10.9990   -3.0502   25.3642 C   0  0  0  0  0  0  0  0  0  0  0  0
   10.3910   -2.0810   24.3942 C   0  0  0  0  0  0  0  0  0  0  0  0
    6.0265   -4.8050   23.7866 C   0  0  0  0  0  0  0  0  0  0  0  0
    5.7381   -5.4488   22.4629 C   0  0  0  0  0  0  0  0  0  0  0  0
    4.4611   -6.2093   22.2612 N   0  0  0  0  0  0  0  0  0  0  0  0
    3.4724   -6.3260   23.3832 C   0  0  0  0  0  0  0  0  0  0  0  0
    3.7608   -5.6822   24.7069 C   0  0  0  0  0  0  0  0  0  0  0  0
    2.7720   -5.7988   25.8290 C   0  0  0  0  0  0  0  0  0  0  0  0
    3.0605   -5.1550   27.1527 C   0  0  0  0  0  0  0  0  0  0  0  0
    4.3375   -4.3945   27.3544 C   0  0  0  0  0  0  0  0  0  0  0  0
    5.3262   -4.2778   26.2324 C   0  0  0  0  0  0  0  0  0  0  0  0
    5.0379   -4.9216   24.9087 C   0  0  0  0  0  0  0  0  0  0  0  0
    8.5667    0.8264   21.4840 C   0  0  0  0  0  0  0  0  0  0  0  0
    7.8645    2.0520   21.9888 C   0  0  0  0  0  0  0  0  0  0  0  0
    6.5397    2.5686   21.5114 C   0  0  0  0  0  0  0  0  0  0  0  0
    6.2202    3.8120   22.2872 C   0  0  0  0  0  0  0  0  0  0  0  0
    7.3476    4.0639   23.2442 N   0  0  0  0  0  0  0  0  0  0  0  0
    7.4421    5.2034   24.2150 C   0  0  0  0  0  0  0  0  0  0  0  0
    8.3638    2.9761   23.0597 N   0  0  0  0  0  0  0  0  0  0  0  0
  2  1  1  0  0  0
  2  3  1  0  0  0
  3  4  1  0  0  0
  4 19  1  0  0  0
 19 20  2  0  0  0
 20 21  1  0  0  0
 21 22  2  0  0  0
 22 23  1  0  0  0
 23 24  2  0  0  0
 24 25  1  0  0  0
 25 26  2  0  0  0
 26 27  1  0  0  0
 27 28  2  0  0  0
  4  5  1  0  0  0
  5  6  2  0  0  0
  5  7  1  0  0  0
  7  8  1  0  0  0
  8  9  1  0  0  0
  9 29  1  0  0  0
 29 30  1  0  0  0
 30 31  1  0  0  0
 31 32  2  0  0  0
 32 33  1  0  0  0
 33 34  1  0  0  0
 33 35  1  0  0  0
  9 10  1  0  0  0
 10 11  2  0  0  0
 10 12  1  0  0  0
 12 13  2  0  0  0
 13 14  1  0  0  0
 14 15  2  0  0  0
 15 16  1  0  0  0
 15 17  1  0  0  0
 17 18  2  0  0  0
  7  2  1  0  0  0
 35 30  2  0  0  0
 18 12  1  0  0  0
 28 19  1  0  0  0
 18  7  1  0  0  0
 28 23  1  0  0  0
M  END
> <minimizedAffinity>
-8.77200

> <CNNscore>
0.2861926556

> <CNNaffinity>
6.5070700645

> <CNN_VS>
1.8622757196

> <CNNaffinity_variance>
0.1591921747

$$$$



 35 40  0  0  0  0  0  0  0  0999 V2000
   10.4668    0.3000   22.6851 C   0  0  0  0  0  0  0  0  0  0  0  0
    9.1443   -0.2724   22.2686 C   0  0  0  0  0  0  0  0  0  0  0  0
    8.4356    0.6094   21.2836 C   0  0  0  0  0  0  0  0  0  0  0  0
    7.1324   -0.0441   20.9304 N   0  0  0  0  0  0  0  0  0  0  0  0
    7.0358   -1.3297   21.6971 C   0  0  0  0  0  0  0  0  0  0  0  0
    5.8958   -2.3033   21.6457 O   0  0  0  0  0  0  0  0  0  0  0  0
    8.2792   -1.4709   22.5241 C   0  0  0  0  0  0  0  0  0  0  0  0
    7.3115   -2.6065   22.6787 C   0  0  0  0  0  0  0  0  0  0  0  0
    7.6333   -3.7460   23.5996 N   0  0  0  0  0  0  0  0  0  0  0  0
    8.9228   -3.7499   24.3659 C   0  0  0  0  0  0  0  0  0  0  0  0
    9.2446   -4.8893   25.2868 O   0  0  0  0  0  0  0  0  0  0  0  0
    9.8905   -2.6142   24.2113 C   0  0  0  0  0  0  0  0  0  0  0  0
   11.1799   -2.6180   24.9777 C   0  0  0  0  0  0  0  0  0  0  0  0
   12.1476   -1.4824   24.8231 C   0  0  0  0  0  0  0  0  0  0  0  0
   11.8258   -0.3429   23.9022 C   0  0  0  0  0  0  0  0  0  0  0  0
   12.7935    0.7928   23.7477 F   0  0  0  0  0  0  0  0  0  0  0  0
   10.5363   -0.3390   23.1359 C   0  0  0  0  0  0  0  0  0  0  0  0
    9.5687   -1.4747   23.2905 C   0  0  0  0  0  0  0  0  0  0  0  0
    6.1061    0.4936   19.9778 C   0  0  0  0  0  0  0  0  0  0  0  0
    6.0778    0.0144   18.5568 C   0  0  0  0  0  0  0  0  0  0  0  0
    5.0514    0.5521   17.6042 N   0  0  0  0  0  0  0  0  0  0  0  0
    4.0534    1.5691   18.0727 C   0  0  0  0  0  0  0  0  0  0  0  0
    4.0817    2.0484   19.4938 C   0  0  0  0  0  0  0  0  0  0  0  0
    3.0836    3.0656   19.9623 C   0  0  0  0  0  0  0  0  0  0  0  0
    3.1120    3.5448   21.3834 C   0  0  0  0  0  0  0  0  0  0  0  0
    4.1383    3.0070   22.3359 C   0  0  0  0  0  0  0  0  0  0  0  0
    5.1363    1.9900   21.8674 C   0  0  0  0  0  0  0  0  0  0  0  0
    5.1080    1.5107   20.4464 C   0  0  0  0  0  0  0  0  0  0  0  0
    6.6656   -4.8817   23.7541 C   0  0  0  0  0  0  0  0  0  0  0  0
    5.7625   -4.9400   24.9503 C   0  0  0  0  0  0  0  0  0  0  0  0
    5.5651   -3.8484   25.9600 C   0  0  0  0  0  0  0  0  0  0  0  0
    4.5788   -4.3339   26.9806 C   0  0  0  0  0  0  0  0  0  0  0  0
    4.1665   -5.7255   26.6016 N   0  0  0  0  0  0  0  0  0  0  0  0
    3.1936   -6.5905   27.3465 C   0  0  0  0  0  0  0  0  0  0  0  0
    4.8981   -6.1000   25.3468 N   0  0  0  0  0  0  0  0  0  0  0  0
  2  1  1  0  0  0
  2  3  1  0  0  0
  3  4  1  0  0  0
  4 19  1  0  0  0
 19 20  2  0  0  0
 20 21  1  0  0  0
 21 22  2  0  0  0
 22 23  1  0  0  0
 23 24  2  0  0  0
 24 25  1  0  0  0
 25 26  2  0  0  0
 26 27  1  0  0  0
 27 28  2  0  0  0
  4  5  1  0  0  0
  5  6  2  0  0  0
  5  7  1  0  0  0
  7  8  1  0  0  0
  8  9  1  0  0  0
  9 29  1  0  0  0
 29 30  1  0  0  0
 30 31  1  0  0  0
 31 32  2  0  0  0
 32 33  1  0  0  0
 33 34  1  0  0  0
 33 35  1  0  0  0
  9 10  1  0  0  0
 10 11  2  0  0  0
 10 12  1  0  0  0
 12 13  2  0  0  0
 13 14  1  0  0  0
 14 15  2  0  0  0
 15 16  1  0  0  0
 15 17  1  0  0  0
 17 18  2  0  0  0
  7  2  1  0  0  0
 35 30  2  0  0  0
 18 12  1  0  0  0
 28 19  1  0  0  0
 18  7  1  0  0  0
 28 23  1  0  0  0
M  END
> <minimizedAffinity>
-9.03031

> <CNNscore>
0.2774322331

> <CNNaffinity>
6.4922728539

> <CNN_VS>
1.8011657000

> <CNNaffinity_variance>
0.0509123392

$$$$



 35 40  0  0  0  0  0  0  0  0999 V2000
   11.2416   -2.4975   25.3353 C   0  0  0  0  0  0  0  0  0  0  0  0
    9.8022   -2.1030   25.4850 C   0  0  0  0  0  0  0  0  0  0  0  0
    9.0324   -3.0892   26.3124 C   0  0  0  0  0  0  0  0  0  0  0  0
    7.6138   -2.6104   26.4037 N   0  0  0  0  0  0  0  0  0  0  0  0
    7.5069   -1.3282   25.6327 C   0  0  0  0  0  0  0  0  0  0  0  0
    6.2654   -0.5042   25.4598 O   0  0  0  0  0  0  0  0  0  0  0  0
    8.8594   -1.0145   25.0649 C   0  0  0  0  0  0  0  0  0  0  0  0
    7.8051   -0.0036   24.7237 C   0  0  0  0  0  0  0  0  0  0  0  0
    8.1536    1.1891   23.8833 N   0  0  0  0  0  0  0  0  0  0  0  0
    9.5564    1.3707   23.3841 C   0  0  0  0  0  0  0  0  0  0  0  0
    9.9049    2.5633   22.5437 O   0  0  0  0  0  0  0  0  0  0  0  0
   10.6107    0.3597   23.7252 C   0  0  0  0  0  0  0  0  0  0  0  0
   12.0134    0.5413   23.2260 C   0  0  0  0  0  0  0  0  0  0  0  0
   13.0677   -0.4697   23.5672 C   0  0  0  0  0  0  0  0  0  0  0  0
   12.7192   -1.6623   24.4075 C   0  0  0  0  0  0  0  0  0  0  0  0
   13.7735   -2.6733   24.7487 F   0  0  0  0  0  0  0  0  0  0  0  0
   11.3164   -1.8439   24.9068 C   0  0  0  0  0  0  0  0  0  0  0  0
   10.2622   -0.8330   24.5656 C   0  0  0  0  0  0  0  0  0  0  0  0
    6.4980   -3.2938   27.1372 C   0  0  0  0  0  0  0  0  0  0  0  0
    6.3155   -3.0633   28.6081 C   0  0  0  0  0  0  0  0  0  0  0  0
    5.1998   -3.7466   29.3416 N   0  0  0  0  0  0  0  0  0  0  0  0
    4.2665   -4.6605   28.6042 C   0  0  0  0  0  0  0  0  0  0  0  0
    4.4490   -4.8910   27.1332 C   0  0  0  0  0  0  0  0  0  0  0  0
    3.5156   -5.8049   26.3958 C   0  0  0  0  0  0  0  0  0  0  0  0
    3.6982   -6.0353   24.9249 C   0  0  0  0  0  0  0  0  0  0  0  0
    4.8139   -5.3520   24.1915 C   0  0  0  0  0  0  0  0  0  0  0  0
    5.7472   -4.4381   24.9289 C   0  0  0  0  0  0  0  0  0  0  0  0
    5.5647   -4.2076   26.3997 C   0  0  0  0  0  0  0  0  0  0  0  0
    7.0993    2.2001   23.5422 C   0  0  0  0  0  0  0  0  0  0  0  0
    7.0640    3.5176   24.2583 C   0  0  0  0  0  0  0  0  0  0  0  0
    6.5080    3.7609   25.6300 C   0  0  0  0  0  0  0  0  0  0  0  0
    6.6789    5.2169   25.9479 C   0  0  0  0  0  0  0  0  0  0  0  0
    7.3404    5.8734   24.7725 N   0  0  0  0  0  0  0  0  0  0  0  0
    7.7007    7.3252   24.6610 C   0  0  0  0  0  0  0  0  0  0  0  0
    7.5784    4.8232   23.7283 N   0  0  0  0  0  0  0  0  0  0  0  0
  2  1  1  0  0  0
  2  3  1  0  0  0
  3  4  1  0  0  0
  4 19  1  0  0  0
 19 20  2  0  0  0
 20 21  1  0  0  0
 21 22  2  0  0  0
 22 23  1  0  0  0
 23 24  2  0  0  0
 24 25  1  0  0  0
 25 26  2  0  0  0
 26 27  1  0  0  0
 27 28  2  0  0  0
  4  5  1  0  0  0
  5  6  2  0  0  0
  5  7  1  0  0  0
  7  8  1  0  0  0
  8  9  1  0  0  0
  9 29  1  0  0  0
 29 30  1  0  0  0
 30 31  1  0  0  0
 31 32  2  0  0  0
 32 33  1  0  0  0
 33 34  1  0  0  0
 33 35  1  0  0  0
  9 10  1  0  0  0
 10 11  2  0  0  0
 10 12  1  0  0  0
 12 13  2  0  0  0
 13 14  1  0  0  0
 14 15  2  0  0  0
 15 16  1  0  0  0
 15 17  1  0  0  0
 17 18  2  0  0  0
  7  2  1  0  0  0
 35 30  2  0  0  0
 18 12  1  0  0  0
 28 19  1  0  0  0
 18  7  1  0  0  0
 28 23  1  0  0  0
M  END
> <minimizedAffinity>
-7.97550

> <CNNscore>
0.2458645105

> <CNNaffinity>
6.3736777306

> <CNN_VS>
1.5670611858

> <CNNaffinity_variance>
0.1762254536

$$$$
