


 36 40  0  0  0  0  0  0  0  0999 V2000
    7.9906   -1.4572   22.8423 C   0  0  0  0  0  0  0  0  0  0  0  0
    7.6146   -0.3512   21.9012 C   0  0  0  0  0  0  0  0  0  0  0  0
    6.4561   -0.8214   21.0726 N   0  0  0  0  0  0  0  0  0  0  0  0
    6.1160   -2.2180   21.5016 C   0  0  0  0  0  0  0  0  0  0  0  0
    5.0199   -3.0718   20.9361 O   0  0  0  0  0  0  0  0  0  0  0  0
    7.0644   -2.6109   22.5953 C   0  0  0  0  0  0  0  0  0  0  0  0
    6.0705   -3.6760   22.2378 C   0  0  0  0  0  0  0  0  0  0  0  0
    6.0893   -4.9916   22.9581 N   0  0  0  0  0  0  0  0  0  0  0  0
    7.1021   -5.2422   24.0358 C   0  0  0  0  0  0  0  0  0  0  0  0
    7.1210   -6.5578   24.7560 O   0  0  0  0  0  0  0  0  0  0  0  0
    8.0961   -4.1771   24.3933 C   0  0  0  0  0  0  0  0  0  0  0  0
    9.1088   -4.4277   25.4709 C   0  0  0  0  0  0  0  0  0  0  0  0
   10.1027   -3.3627   25.8284 C   0  0  0  0  0  0  0  0  0  0  0  0
   10.0839   -2.0471   25.1081 C   0  0  0  0  0  0  0  0  0  0  0  0
   11.0779   -0.9820   25.4656 Cl  0  0  0  0  0  0  0  0  0  0  0  0
    9.0711   -1.7965   24.0305 C   0  0  0  0  0  0  0  0  0  0  0  0
    8.0772   -2.8615   23.6730 C   0  0  0  0  0  0  0  0  0  0  0  0
    5.7598   -0.0335   20.0029 C   0  0  0  0  0  0  0  0  0  0  0  0
    6.2452   -0.1013   18.5853 C   0  0  0  0  0  0  0  0  0  0  0  0
    5.5489    0.6866   17.5156 N   0  0  0  0  0  0  0  0  0  0  0  0
    4.3672    1.5424   17.8636 C   0  0  0  0  0  0  0  0  0  0  0  0
    3.8817    1.6102   19.2812 C   0  0  0  0  0  0  0  0  0  0  0  0
    2.6999    2.4661   19.6292 C   0  0  0  0  0  0  0  0  0  0  0  0
    2.2145    2.5338   21.0468 C   0  0  0  0  0  0  0  0  0  0  0  0
    2.9108    1.7459   22.1165 C   0  0  0  0  0  0  0  0  0  0  0  0
    4.0926    0.8901   21.7685 C   0  0  0  0  0  0  0  0  0  0  0  0
    4.5780    0.8223   20.3510 C   0  0  0  0  0  0  0  0  0  0  0  0
    9.0983   -1.4165   23.8529 O   0  0  0  0  0  0  0  0  0  0  0  0
   11.1040   -1.2168   22.2136 C   0  0  0  0  0  0  0  0  0  0  0  0
   10.4239   -0.8163   23.4891 C   0  0  0  0  0  0  0  0  0  0  0  0
    5.0954   -6.0567   22.6006 C   0  0  0  0  0  0  0  0  0  0  0  0
    3.8230   -6.1884   23.3839 C   0  0  0  0  0  0  0  0  0  0  0  0
    3.6683   -5.4675   24.6901 O   0  0  0  0  0  0  0  0  0  0  0  0
    2.7052   -7.0411   22.8609 N   0  0  0  0  0  0  0  0  0  0  0  0
    1.4327   -7.1729   23.6442 C   0  0  0  0  0  0  0  0  0  0  0  0
    2.8067   -7.5142   22.0035 H   0  0  0  0  0  0  0  0  0  0  0  0
 29 30  1  0  0  0
 30 28  1  0  0  0
  1 28  1  0  0  0
  1  2  1  0  0  0
  2  3  1  0  0  0
  3 18  1  0  0  0
 18 19  2  0  0  0
 19 20  1  0  0  0
 20 21  2  0  0  0
 21 22  1  0  0  0
 22 23  2  0  0  0
 23 24  1  0  0  0
 24 25  2  0  0  0
 25 26  1  0  0  0
 26 27  2  0  0  0
  3  4  1  0  0  0
  4  5  2  0  0  0
  4  6  1  0  0  0
  6  7  1  0  0  0
  7  8  1  0  0  0
  8 31  1  0  0  0
 31 32  1  0  0  0
 32 33  2  0  0  0
 32 34  1  0  0  0
 34 35  1  0  0  0
  8  9  1  0  0  0
  9 10  2  0  0  0
  9 11  1  0  0  0
 11 12  2  0  0  0
 12 13  1  0  0  0
 13 14  2  0  0  0
 14 15  1  0  0  0
 14 16  1  0  0  0
 16 17  2  0  0  0
  6  1  1  0  0  0
 17 11  1  0  0  0
 27 18  1  0  0  0
 17  6  1  0  0  0
 27 22  1  0  0  0
 34 36  1  0  0  0
M  END
> <minimizedAffinity>
-7.96977

> <CNNscore>
0.7029784322

> <CNNaffinity>
6.5989098549

> <CNN_VS>
4.6388912201

> <CNNaffinity_variance>
0.0140060084

$$$$



 36 40  0  0  0  0  0  0  0  0999 V2000
    9.4123   -2.4177   24.5512 C   0  0  0  0  0  0  0  0  0  0  0  0
    8.6669   -3.5678   25.1608 C   0  0  0  0  0  0  0  0  0  0  0  0
    7.2111   -3.3981   24.8413 N   0  0  0  0  0  0  0  0  0  0  0  0
    7.0569   -2.1432   24.0342 C   0  0  0  0  0  0  0  0  0  0  0  0
    5.7685   -1.5912   23.5002 O   0  0  0  0  0  0  0  0  0  0  0  0
    8.4173   -1.5373   23.8549 C   0  0  0  0  0  0  0  0  0  0  0  0
    7.3121   -0.7582   23.2057 C   0  0  0  0  0  0  0  0  0  0  0  0
    7.6229    0.5062   22.4609 N   0  0  0  0  0  0  0  0  0  0  0  0
    9.0390    0.9914   22.3651 C   0  0  0  0  0  0  0  0  0  0  0  0
    9.3498    2.2558   21.6203 O   0  0  0  0  0  0  0  0  0  0  0  0
   10.1443    0.2123   23.0143 C   0  0  0  0  0  0  0  0  0  0  0  0
   11.5604    0.6976   22.9185 C   0  0  0  0  0  0  0  0  0  0  0  0
   12.6656   -0.0815   23.5676 C   0  0  0  0  0  0  0  0  0  0  0  0
   12.3548   -1.3459   24.3125 C   0  0  0  0  0  0  0  0  0  0  0  0
   13.4601   -2.1250   24.9616 Cl  0  0  0  0  0  0  0  0  0  0  0  0
   10.9387   -1.8311   24.4082 C   0  0  0  0  0  0  0  0  0  0  0  0
    9.8335   -1.0520   23.7591 C   0  0  0  0  0  0  0  0  0  0  0  0
    6.1040   -4.3212   25.2561 C   0  0  0  0  0  0  0  0  0  0  0  0
    5.5607   -5.3254   24.2833 C   0  0  0  0  0  0  0  0  0  0  0  0
    4.4535   -6.2485   24.6981 N   0  0  0  0  0  0  0  0  0  0  0  0
    3.8898   -6.1674   26.0858 C   0  0  0  0  0  0  0  0  0  0  0  0
    4.4331   -5.1632   27.0586 C   0  0  0  0  0  0  0  0  0  0  0  0
    3.8692   -5.0822   28.4463 C   0  0  0  0  0  0  0  0  0  0  0  0
    4.4126   -4.0780   29.4191 C   0  0  0  0  0  0  0  0  0  0  0  0
    5.5197   -3.1549   29.0042 C   0  0  0  0  0  0  0  0  0  0  0  0
    6.0835   -3.2360   27.6166 C   0  0  0  0  0  0  0  0  0  0  0  0
    5.5402   -4.2401   26.6438 C   0  0  0  0  0  0  0  0  0  0  0  0
   10.8928   -2.1884   24.6249 O   0  0  0  0  0  0  0  0  0  0  0  0
   11.2165   -4.0753   26.3811 C   0  0  0  0  0  0  0  0  0  0  0  0
   11.6945   -2.8123   25.7285 C   0  0  0  0  0  0  0  0  0  0  0  0
    6.5176    1.2853   21.8118 C   0  0  0  0  0  0  0  0  0  0  0  0
    6.1434    1.0101   20.3855 C   0  0  0  0  0  0  0  0  0  0  0  0
    7.0972    0.2795   19.4875 O   0  0  0  0  0  0  0  0  0  0  0  0
    4.8154    1.4656   19.8573 N   0  0  0  0  0  0  0  0  0  0  0  0
    4.4412    1.1904   18.4310 C   0  0  0  0  0  0  0  0  0  0  0  0
    4.1894    1.9451   20.4467 H   0  0  0  0  0  0  0  0  0  0  0  0
 29 30  1  0  0  0
 30 28  1  0  0  0
  1 28  1  0  0  0
  1  2  1  0  0  0
  2  3  1  0  0  0
  3 18  1  0  0  0
 18 19  2  0  0  0
 19 20  1  0  0  0
 20 21  2  0  0  0
 21 22  1  0  0  0
 22 23  2  0  0  0
 23 24  1  0  0  0
 24 25  2  0  0  0
 25 26  1  0  0  0
 26 27  2  0  0  0
  3  4  1  0  0  0
  4  5  2  0  0  0
  4  6  1  0  0  0
  6  7  1  0  0  0
  7  8  1  0  0  0
  8 31  1  0  0  0
 31 32  1  0  0  0
 32 33  2  0  0  0
 32 34  1  0  0  0
 34 35  1  0  0  0
  8  9  1  0  0  0
  9 10  2  0  0  0
  9 11  1  0  0  0
 11 12  2  0  0  0
 12 13  1  0  0  0
 13 14  2  0  0  0
 14 15  1  0  0  0
 14 16  1  0  0  0
 16 17  2  0  0  0
  6  1  1  0  0  0
 17 11  1  0  0  0
 27 18  1  0  0  0
 17  6  1  0  0  0
 27 22  1  0  0  0
 34 36  1  0  0  0
M  END
> <minimizedAffinity>
-8.17614

> <CNNscore>
0.6445867419

> <CNNaffinity>
6.8093032837

> <CNN_VS>
4.3891863823

> <CNNaffinity_variance>
0.1220102310

$$$$



 36 40  0  0  0  0  0  0  0  0999 V2000
    9.5611   -2.7204   24.3787 C   0  0  0  0  0  0  0  0  0  0  0  0
    8.8439   -3.9132   24.9380 C   0  0  0  0  0  0  0  0  0  0  0  0
    7.3984   -3.8085   24.5511 N   0  0  0  0  0  0  0  0  0  0  0  0
    7.2223   -2.5509   23.7527 C   0  0  0  0  0  0  0  0  0  0  0  0
    5.9355   -2.0532   23.1641 O   0  0  0  0  0  0  0  0  0  0  0  0
    8.5589   -1.8784   23.6461 C   0  0  0  0  0  0  0  0  0  0  0  0
    7.4494   -1.1435   22.9542 C   0  0  0  0  0  0  0  0  0  0  0  0
    7.7338    0.1447   22.2404 N   0  0  0  0  0  0  0  0  0  0  0  0
    9.1278    0.6981   22.2185 C   0  0  0  0  0  0  0  0  0  0  0  0
    9.4122    1.9864   21.5048 O   0  0  0  0  0  0  0  0  0  0  0  0
   10.2374   -0.0368   22.9105 C   0  0  0  0  0  0  0  0  0  0  0  0
   11.6314    0.5166   22.8887 C   0  0  0  0  0  0  0  0  0  0  0  0
   12.7409   -0.2182   23.5807 C   0  0  0  0  0  0  0  0  0  0  0  0
   12.4565   -1.5065   24.2945 C   0  0  0  0  0  0  0  0  0  0  0  0
   13.5661   -2.2413   24.9865 Cl  0  0  0  0  0  0  0  0  0  0  0  0
   11.0625   -2.0599   24.3163 C   0  0  0  0  0  0  0  0  0  0  0  0
    9.9530   -1.3250   23.6243 C   0  0  0  0  0  0  0  0  0  0  0  0
    6.3187   -4.7891   24.9011 C   0  0  0  0  0  0  0  0  0  0  0  0
    6.0936   -5.9960   24.0394 C   0  0  0  0  0  0  0  0  0  0  0  0
    5.0138   -6.9766   24.3894 N   0  0  0  0  0  0  0  0  0  0  0  0
    4.1592   -6.7502   25.6012 C   0  0  0  0  0  0  0  0  0  0  0  0
    4.3844   -5.5432   26.4629 C   0  0  0  0  0  0  0  0  0  0  0  0
    3.5297   -5.3169   27.6748 C   0  0  0  0  0  0  0  0  0  0  0  0
    3.7549   -4.1099   28.5364 C   0  0  0  0  0  0  0  0  0  0  0  0
    4.8346   -3.1294   28.1863 C   0  0  0  0  0  0  0  0  0  0  0  0
    5.6892   -3.3557   26.9746 C   0  0  0  0  0  0  0  0  0  0  0  0
    5.4641   -4.5626   26.1129 C   0  0  0  0  0  0  0  0  0  0  0  0
   11.0237   -2.4220   24.5261 O   0  0  0  0  0  0  0  0  0  0  0  0
   11.4831   -4.0785   26.4742 C   0  0  0  0  0  0  0  0  0  0  0  0
   11.7332   -2.7603   25.8036 C   0  0  0  0  0  0  0  0  0  0  0  0
    6.6242    0.8796   21.5484 C   0  0  0  0  0  0  0  0  0  0  0  0
    6.1366    2.1887   22.0946 C   0  0  0  0  0  0  0  0  0  0  0  0
    5.0053    2.2159   23.0792 O   0  0  0  0  0  0  0  0  0  0  0  0
    6.7804    3.4706   21.6563 N   0  0  0  0  0  0  0  0  0  0  0  0
    6.2929    4.7799   22.2025 C   0  0  0  0  0  0  0  0  0  0  0  0
    7.5229    3.4528   21.0101 H   0  0  0  0  0  0  0  0  0  0  0  0
 29 30  1  0  0  0
 30 28  1  0  0  0
  1 28  1  0  0  0
  1  2  1  0  0  0
  2  3  1  0  0  0
  3 18  1  0  0  0
 18 19  2  0  0  0
 19 20  1  0  0  0
 20 21  2  0  0  0
 21 22  1  0  0  0
 22 23  2  0  0  0
 23 24  1  0  0  0
 24 25  2  0  0  0
 25 26  1  0  0  0
 26 27  2  0  0  0
  3  4  1  0  0  0
  4  5  2  0  0  0
  4  6  1  0  0  0
  6  7  1  0  0  0
  7  8  1  0  0  0
  8 31  1  0  0  0
 31 32  1  0  0  0
 32 33  2  0  0  0
 32 34  1  0  0  0
 34 35  1  0  0  0
  8  9  1  0  0  0
  9 10  2  0  0  0
  9 11  1  0  0  0
 11 12  2  0  0  0
 12 13  1  0  0  0
 13 14  2  0  0  0
 14 15  1  0  0  0
 14 16  1  0  0  0
 16 17  2  0  0  0
  6  1  1  0  0  0
 17 11  1  0  0  0
 27 18  1  0  0  0
 17  6  1  0  0  0
 27 22  1  0  0  0
 34 36  1  0  0  0
M  END
> <minimizedAffinity>
-7.75573

> <CNNscore>
0.5702628493

> <CNNaffinity>
6.8737196922

> <CNN_VS>
3.9198269844

> <CNNaffinity_variance>
0.2161974013

$$$$



 36 40  0  0  0  0  0  0  0  0999 V2000
    7.7088   -2.0435   22.6185 C   0  0  0  0  0  0  0  0  0  0  0  0
    6.6111   -1.7876   21.6287 C   0  0  0  0  0  0  0  0  0  0  0  0
    6.8926   -0.4784   20.9527 N   0  0  0  0  0  0  0  0  0  0  0  0
    8.1641    0.0747   21.5248 C   0  0  0  0  0  0  0  0  0  0  0  0
    8.8167    1.3680   21.1356 O   0  0  0  0  0  0  0  0  0  0  0  0
    8.6686   -0.8926   22.5543 C   0  0  0  0  0  0  0  0  0  0  0  0
    9.5351    0.3192   22.3794 C   0  0  0  0  0  0  0  0  0  0  0  0
   10.7806    0.4754   23.2005 N   0  0  0  0  0  0  0  0  0  0  0  0
   11.1597   -0.5803   24.1965 C   0  0  0  0  0  0  0  0  0  0  0  0
   12.4052   -0.4241   25.0176 O   0  0  0  0  0  0  0  0  0  0  0  0
   10.2932   -1.7922   24.3713 C   0  0  0  0  0  0  0  0  0  0  0  0
   10.6722   -2.8478   25.3673 C   0  0  0  0  0  0  0  0  0  0  0  0
    9.8057   -4.0596   25.5421 C   0  0  0  0  0  0  0  0  0  0  0  0
    8.5601   -4.2158   24.7210 C   0  0  0  0  0  0  0  0  0  0  0  0
    7.6936   -5.4277   24.8959 Cl  0  0  0  0  0  0  0  0  0  0  0  0
    8.1811   -3.1602   23.7251 C   0  0  0  0  0  0  0  0  0  0  0  0
    9.0476   -1.9483   23.5502 C   0  0  0  0  0  0  0  0  0  0  0  0
    6.0504    0.1648   19.8911 C   0  0  0  0  0  0  0  0  0  0  0  0
    6.4367    0.0368   18.4475 C   0  0  0  0  0  0  0  0  0  0  0  0
    5.5944    0.6800   17.3859 N   0  0  0  0  0  0  0  0  0  0  0  0
    4.3659    1.4511   17.7680 C   0  0  0  0  0  0  0  0  0  0  0  0
    3.9796    1.5790   19.2118 C   0  0  0  0  0  0  0  0  0  0  0  0
    2.7510    2.3502   19.5939 C   0  0  0  0  0  0  0  0  0  0  0  0
    2.3647    2.4781   21.0377 C   0  0  0  0  0  0  0  0  0  0  0  0
    3.2070    1.8349   22.0992 C   0  0  0  0  0  0  0  0  0  0  0  0
    4.4355    1.0638   21.7170 C   0  0  0  0  0  0  0  0  0  0  0  0
    4.8218    0.9359   20.2734 C   0  0  0  0  0  0  0  0  0  0  0  0
    7.8260   -3.2404   23.5151 O   0  0  0  0  0  0  0  0  0  0  0  0
    5.8242   -4.4238   22.3565 C   0  0  0  0  0  0  0  0  0  0  0  0
    7.0640   -4.4929   23.1977 C   0  0  0  0  0  0  0  0  0  0  0  0
   11.6472    1.6873   23.0257 C   0  0  0  0  0  0  0  0  0  0  0  0
   11.0313    3.0550   23.0189 C   0  0  0  0  0  0  0  0  0  0  0  0
    9.5875    3.2292   23.3864 O   0  0  0  0  0  0  0  0  0  0  0  0
   11.8593    4.2484   22.6446 N   0  0  0  0  0  0  0  0  0  0  0  0
   11.2434    5.6162   22.6378 C   0  0  0  0  0  0  0  0  0  0  0  0
   12.8069    4.1340   22.4034 H   0  0  0  0  0  0  0  0  0  0  0  0
 29 30  1  0  0  0
 30 28  1  0  0  0
  1 28  1  0  0  0
  1  2  1  0  0  0
  2  3  1  0  0  0
  3 18  1  0  0  0
 18 19  2  0  0  0
 19 20  1  0  0  0
 20 21  2  0  0  0
 21 22  1  0  0  0
 22 23  2  0  0  0
 23 24  1  0  0  0
 24 25  2  0  0  0
 25 26  1  0  0  0
 26 27  2  0  0  0
  3  4  1  0  0  0
  4  5  2  0  0  0
  4  6  1  0  0  0
  6  7  1  0  0  0
  7  8  1  0  0  0
  8 31  1  0  0  0
 31 32  1  0  0  0
 32 33  2  0  0  0
 32 34  1  0  0  0
 34 35  1  0  0  0
  8  9  1  0  0  0
  9 10  2  0  0  0
  9 11  1  0  0  0
 11 12  2  0  0  0
 12 13  1  0  0  0
 13 14  2  0  0  0
 14 15  1  0  0  0
 14 16  1  0  0  0
 16 17  2  0  0  0
  6  1  1  0  0  0
 17 11  1  0  0  0
 27 18  1  0  0  0
 17  6  1  0  0  0
 27 22  1  0  0  0
 34 36  1  0  0  0
M  END
> <minimizedAffinity>
-8.85671

> <CNNscore>
0.5689675808

> <CNNaffinity>
6.5974335670

> <CNN_VS>
3.7537257671

> <CNNaffinity_variance>
0.1229373217

$$$$



 36 40  0  0  0  0  0  0  0  0999 V2000
    9.6719   -0.7685   23.7752 C   0  0  0  0  0  0  0  0  0  0  0  0
   10.5612    0.4368   23.8553 C   0  0  0  0  0  0  0  0  0  0  0  0
    9.9965    1.4905   22.9494 N   0  0  0  0  0  0  0  0  0  0  0  0
    8.7582    0.9365   22.3094 C   0  0  0  0  0  0  0  0  0  0  0  0
    7.8755    1.6529   21.3309 O   0  0  0  0  0  0  0  0  0  0  0  0
    8.5576   -0.4597   22.8198 C   0  0  0  0  0  0  0  0  0  0  0  0
    7.5092   -0.0096   21.8459 C   0  0  0  0  0  0  0  0  0  0  0  0
    6.3907   -0.9345   21.4673 N   0  0  0  0  0  0  0  0  0  0  0  0
    6.3205   -2.3096   22.0625 C   0  0  0  0  0  0  0  0  0  0  0  0
    5.2019   -3.2345   21.6839 O   0  0  0  0  0  0  0  0  0  0  0  0
    7.3688   -2.7597   23.0364 C   0  0  0  0  0  0  0  0  0  0  0  0
    7.2986   -4.1348   23.6316 C   0  0  0  0  0  0  0  0  0  0  0  0
    8.3470   -4.5849   24.6054 C   0  0  0  0  0  0  0  0  0  0  0  0
    9.4655   -3.6599   24.9840 C   0  0  0  0  0  0  0  0  0  0  0  0
   10.5139   -4.1101   25.9579 Cl  0  0  0  0  0  0  0  0  0  0  0  0
    9.5357   -2.2849   24.3888 C   0  0  0  0  0  0  0  0  0  0  0  0
    8.4874   -1.8348   23.4150 C   0  0  0  0  0  0  0  0  0  0  0  0
   10.5695    2.8582   22.7232 C   0  0  0  0  0  0  0  0  0  0  0  0
   11.9698    3.0088   22.2073 C   0  0  0  0  0  0  0  0  0  0  0  0
   12.5427    4.3765   21.9811 N   0  0  0  0  0  0  0  0  0  0  0  0
   11.7153    5.5935   22.2709 C   0  0  0  0  0  0  0  0  0  0  0  0
   10.3149    5.4429   22.7869 C   0  0  0  0  0  0  0  0  0  0  0  0
    9.4874    6.6601   23.0767 C   0  0  0  0  0  0  0  0  0  0  0  0
    8.0871    6.5094   23.5927 C   0  0  0  0  0  0  0  0  0  0  0  0
    7.5142    5.1418   23.8189 C   0  0  0  0  0  0  0  0  0  0  0  0
    8.3416    3.9247   23.5291 C   0  0  0  0  0  0  0  0  0  0  0  0
    9.7419    4.0753   23.0131 C   0  0  0  0  0  0  0  0  0  0  0  0
    9.8634   -2.0565   24.5197 O   0  0  0  0  0  0  0  0  0  0  0  0
   12.0273   -1.2313   25.6972 C   0  0  0  0  0  0  0  0  0  0  0  0
   11.1774   -2.3535   25.1794 C   0  0  0  0  0  0  0  0  0  0  0  0
    5.3423   -0.4843   20.4935 C   0  0  0  0  0  0  0  0  0  0  0  0
    5.7347   -0.0768   19.1043 C   0  0  0  0  0  0  0  0  0  0  0  0
    7.0587   -0.5037   18.5432 O   0  0  0  0  0  0  0  0  0  0  0  0
    4.8030    0.7575   18.2762 N   0  0  0  0  0  0  0  0  0  0  0  0
    5.1953    1.1651   16.8869 C   0  0  0  0  0  0  0  0  0  0  0  0
    3.9340    1.0377   18.6444 H   0  0  0  0  0  0  0  0  0  0  0  0
 29 30  1  0  0  0
 30 28  1  0  0  0
  1 28  1  0  0  0
  1  2  1  0  0  0
  2  3  1  0  0  0
  3 18  1  0  0  0
 18 19  2  0  0  0
 19 20  1  0  0  0
 20 21  2  0  0  0
 21 22  1  0  0  0
 22 23  2  0  0  0
 23 24  1  0  0  0
 24 25  2  0  0  0
 25 26  1  0  0  0
 26 27  2  0  0  0
  3  4  1  0  0  0
  4  5  2  0  0  0
  4  6  1  0  0  0
  6  7  1  0  0  0
  7  8  1  0  0  0
  8 31  1  0  0  0
 31 32  1  0  0  0
 32 33  2  0  0  0
 32 34  1  0  0  0
 34 35  1  0  0  0
  8  9  1  0  0  0
  9 10  2  0  0  0
  9 11  1  0  0  0
 11 12  2  0  0  0
 12 13  1  0  0  0
 13 14  2  0  0  0
 14 15  1  0  0  0
 14 16  1  0  0  0
 16 17  2  0  0  0
  6  1  1  0  0  0
 17 11  1  0  0  0
 27 18  1  0  0  0
 17  6  1  0  0  0
 27 22  1  0  0  0
 34 36  1  0  0  0
M  END
> <minimizedAffinity>
-8.56588

> <CNNscore>
0.5063527822

> <CNNaffinity>
6.6974768639

> <CNN_VS>
3.3912861347

> <CNNaffinity_variance>
0.0773979723

$$$$



 36 40  0  0  0  0  0  0  0  0999 V2000
    8.9780   -1.0733   25.4830 C   0  0  0  0  0  0  0  0  0  0  0  0
    7.5268   -0.9784   25.8504 C   0  0  0  0  0  0  0  0  0  0  0  0
    6.9384    0.1903   25.1170 N   0  0  0  0  0  0  0  0  0  0  0  0
    8.0260    0.8177   24.2963 C   0  0  0  0  0  0  0  0  0  0  0  0
    7.8788    2.0158   23.4058 O   0  0  0  0  0  0  0  0  0  0  0  0
    9.2866    0.0368   24.5225 C   0  0  0  0  0  0  0  0  0  0  0  0
    9.4444    1.1889   23.5750 C   0  0  0  0  0  0  0  0  0  0  0  0
   10.7791    1.4689   22.9504 N   0  0  0  0  0  0  0  0  0  0  0  0
   11.9560    0.5968   23.2732 C   0  0  0  0  0  0  0  0  0  0  0  0
   13.2907    0.8767   22.6486 O   0  0  0  0  0  0  0  0  0  0  0  0
   11.7982   -0.5554   24.2207 C   0  0  0  0  0  0  0  0  0  0  0  0
   12.9751   -1.4275   24.5436 C   0  0  0  0  0  0  0  0  0  0  0  0
   12.8173   -2.5796   25.4910 C   0  0  0  0  0  0  0  0  0  0  0  0
   11.4826   -2.8596   26.1156 C   0  0  0  0  0  0  0  0  0  0  0  0
   11.3248   -4.0118   27.0631 Cl  0  0  0  0  0  0  0  0  0  0  0  0
   10.3057   -1.9875   25.7928 C   0  0  0  0  0  0  0  0  0  0  0  0
   10.4635   -0.8354   24.8454 C   0  0  0  0  0  0  0  0  0  0  0  0
    5.5128    0.6508   25.1912 C   0  0  0  0  0  0  0  0  0  0  0  0
    4.5319    0.2267   24.1387 C   0  0  0  0  0  0  0  0  0  0  0  0
    3.1063    0.6871   24.2129 N   0  0  0  0  0  0  0  0  0  0  0  0
    2.6616    1.5717   25.3397 C   0  0  0  0  0  0  0  0  0  0  0  0
    3.6425    1.9959   26.3922 C   0  0  0  0  0  0  0  0  0  0  0  0
    3.1978    2.8805   27.5191 C   0  0  0  0  0  0  0  0  0  0  0  0
    4.1788    3.3046   28.5716 C   0  0  0  0  0  0  0  0  0  0  0  0
    5.6043    2.8441   28.4973 C   0  0  0  0  0  0  0  0  0  0  0  0
    6.0490    1.9595   27.3705 C   0  0  0  0  0  0  0  0  0  0  0  0
    5.0682    1.5354   26.3180 C   0  0  0  0  0  0  0  0  0  0  0  0
    9.9500   -2.0983   25.9875 O   0  0  0  0  0  0  0  0  0  0  0  0
    8.7142   -4.1181   24.9183 C   0  0  0  0  0  0  0  0  0  0  0  0
    9.5653   -3.5479   26.0138 C   0  0  0  0  0  0  0  0  0  0  0  0
   10.9369    2.6211   22.0029 C   0  0  0  0  0  0  0  0  0  0  0  0
   11.3386    3.9697   22.5224 C   0  0  0  0  0  0  0  0  0  0  0  0
   12.7899    4.3001   22.7079 O   0  0  0  0  0  0  0  0  0  0  0  0
   10.2889    4.9878   22.8563 N   0  0  0  0  0  0  0  0  0  0  0  0
   10.6905    6.3365   23.3758 C   0  0  0  0  0  0  0  0  0  0  0  0
    9.3363    4.7709   22.7345 H   0  0  0  0  0  0  0  0  0  0  0  0
 29 30  1  0  0  0
 30 28  1  0  0  0
  1 28  1  0  0  0
  1  2  1  0  0  0
  2  3  1  0  0  0
  3 18  1  0  0  0
 18 19  2  0  0  0
 19 20  1  0  0  0
 20 21  2  0  0  0
 21 22  1  0  0  0
 22 23  2  0  0  0
 23 24  1  0  0  0
 24 25  2  0  0  0
 25 26  1  0  0  0
 26 27  2  0  0  0
  3  4  1  0  0  0
  4  5  2  0  0  0
  4  6  1  0  0  0
  6  7  1  0  0  0
  7  8  1  0  0  0
  8 31  1  0  0  0
 31 32  1  0  0  0
 32 33  2  0  0  0
 32 34  1  0  0  0
 34 35  1  0  0  0
  8  9  1  0  0  0
  9 10  2  0  0  0
  9 11  1  0  0  0
 11 12  2  0  0  0
 12 13  1  0  0  0
 13 14  2  0  0  0
 14 15  1  0  0  0
 14 16  1  0  0  0
 16 17  2  0  0  0
  6  1  1  0  0  0
 17 11  1  0  0  0
 27 18  1  0  0  0
 17  6  1  0  0  0
 27 22  1  0  0  0
 34 36  1  0  0  0
M  END
> <minimizedAffinity>
-7.48626

> <CNNscore>
0.4554984272

> <CNNaffinity>
6.5819892883

> <CNN_VS>
2.9980857372

> <CNNaffinity_variance>
0.1545110643

$$$$



 36 40  0  0  0  0  0  0  0  0999 V2000
    9.3717   -3.1878   24.4436 C   0  0  0  0  0  0  0  0  0  0  0  0
    8.3890   -4.3149   24.5616 C   0  0  0  0  0  0  0  0  0  0  0  0
    7.1250   -3.9025   23.8672 N   0  0  0  0  0  0  0  0  0  0  0  0
    7.3266   -2.5205   23.3199 C   0  0  0  0  0  0  0  0  0  0  0  0
    6.3169   -1.7206   22.5514 O   0  0  0  0  0  0  0  0  0  0  0  0
    8.7151   -2.0788   23.6762 C   0  0  0  0  0  0  0  0  0  0  0  0
    7.9318   -1.0621   22.8999 C   0  0  0  0  0  0  0  0  0  0  0  0
    8.5544    0.2570   22.5501 N   0  0  0  0  0  0  0  0  0  0  0  0
    9.9603    0.5594   22.9766 C   0  0  0  0  0  0  0  0  0  0  0  0
   10.5829    1.8785   22.6269 O   0  0  0  0  0  0  0  0  0  0  0  0
   10.7437   -0.4573   23.7529 C   0  0  0  0  0  0  0  0  0  0  0  0
   12.1496   -0.1550   24.1795 C   0  0  0  0  0  0  0  0  0  0  0  0
   12.9329   -1.1717   24.9557 C   0  0  0  0  0  0  0  0  0  0  0  0
   12.3103   -2.4908   25.3055 C   0  0  0  0  0  0  0  0  0  0  0  0
   13.0937   -3.5076   26.0818 Cl  0  0  0  0  0  0  0  0  0  0  0  0
   10.9044   -2.7932   24.8790 C   0  0  0  0  0  0  0  0  0  0  0  0
   10.1211   -1.7764   24.1027 C   0  0  0  0  0  0  0  0  0  0  0  0
    5.8784   -4.7272   23.7419 C   0  0  0  0  0  0  0  0  0  0  0  0
    5.5225   -5.3536   22.4264 C   0  0  0  0  0  0  0  0  0  0  0  0
    4.2759   -6.1783   22.3011 N   0  0  0  0  0  0  0  0  0  0  0  0
    3.3851   -6.3766   23.4916 C   0  0  0  0  0  0  0  0  0  0  0  0
    3.7410   -5.7502   24.8072 C   0  0  0  0  0  0  0  0  0  0  0  0
    2.8501   -5.9485   25.9977 C   0  0  0  0  0  0  0  0  0  0  0  0
    3.2061   -5.3220   27.3133 C   0  0  0  0  0  0  0  0  0  0  0  0
    4.4527   -4.4973   27.4385 C   0  0  0  0  0  0  0  0  0  0  0  0
    5.3435   -4.2990   26.2481 C   0  0  0  0  0  0  0  0  0  0  0  0
    4.9876   -4.9254   24.9325 C   0  0  0  0  0  0  0  0  0  0  0  0
   10.7662   -3.1725   24.9960 O   0  0  0  0  0  0  0  0  0  0  0  0
   10.0804   -3.8989   27.3943 C   0  0  0  0  0  0  0  0  0  0  0  0
   11.0756   -3.8976   26.2721 C   0  0  0  0  0  0  0  0  0  0  0  0
    7.7711    1.2738   21.7738 C   0  0  0  0  0  0  0  0  0  0  0  0
    6.8732    0.8346   20.6554 C   0  0  0  0  0  0  0  0  0  0  0  0
    7.3967   -0.0807   19.5886 O   0  0  0  0  0  0  0  0  0  0  0  0
    5.4517    1.3106   20.6039 N   0  0  0  0  0  0  0  0  0  0  0  0
    4.5537    0.8714   19.4855 C   0  0  0  0  0  0  0  0  0  0  0  0
    5.1080    1.9113   21.3041 H   0  0  0  0  0  0  0  0  0  0  0  0
 29 30  1  0  0  0
 30 28  1  0  0  0
  1 28  1  0  0  0
  1  2  1  0  0  0
  2  3  1  0  0  0
  3 18  1  0  0  0
 18 19  2  0  0  0
 19 20  1  0  0  0
 20 21  2  0  0  0
 21 22  1  0  0  0
 22 23  2  0  0  0
 23 24  1  0  0  0
 24 25  2  0  0  0
 25 26  1  0  0  0
 26 27  2  0  0  0
  3  4  1  0  0  0
  4  5  2  0  0  0
  4  6  1  0  0  0
  6  7  1  0  0  0
  7  8  1  0  0  0
  8 31  1  0  0  0
 31 32  1  0  0  0
 32 33  2  0  0  0
 32 34  1  0  0  0
 34 35  1  0  0  0
  8  9  1  0  0  0
  9 10  2  0  0  0
  9 11  1  0  0  0
 11 12  2  0  0  0
 12 13  1  0  0  0
 13 14  2  0  0  0
 14 15  1  0  0  0
 14 16  1  0  0  0
 16 17  2  0  0  0
  6  1  1  0  0  0
 17 11  1  0  0  0
 27 18  1  0  0  0
 17  6  1  0  0  0
 27 22  1  0  0  0
 34 36  1  0  0  0
M  END
> <minimizedAffinity>
-8.43932

> <CNNscore>
0.4349193275

> <CNNaffinity>
6.4639334679

> <CNN_VS>
2.8112895489

> <CNNaffinity_variance>
0.0683992654

$$$$



 36 40  0  0  0  0  0  0  0  0999 V2000
    9.1756   -1.2139   22.5930 C   0  0  0  0  0  0  0  0  0  0  0  0
    8.7261   -0.6095   21.2959 C   0  0  0  0  0  0  0  0  0  0  0  0
    7.2262   -0.6008   21.2837 N   0  0  0  0  0  0  0  0  0  0  0  0
    6.7488   -1.2000   22.5733 C   0  0  0  0  0  0  0  0  0  0  0  0
    5.3177   -1.3873   22.9820 O   0  0  0  0  0  0  0  0  0  0  0  0
    7.9536   -1.5788   23.3825 C   0  0  0  0  0  0  0  0  0  0  0  0
    6.6473   -1.8877   24.0520 C   0  0  0  0  0  0  0  0  0  0  0  0
    6.6326   -2.5205   25.4119 N   0  0  0  0  0  0  0  0  0  0  0  0
    7.9242   -2.8443   26.1024 C   0  0  0  0  0  0  0  0  0  0  0  0
    7.9096   -3.4770   27.4624 O   0  0  0  0  0  0  0  0  0  0  0  0
    9.2306   -2.5354   25.4330 C   0  0  0  0  0  0  0  0  0  0  0  0
   10.5222   -2.8592   26.1235 C   0  0  0  0  0  0  0  0  0  0  0  0
   11.8285   -2.5503   25.4541 C   0  0  0  0  0  0  0  0  0  0  0  0
   11.8432   -1.9176   24.0941 C   0  0  0  0  0  0  0  0  0  0  0  0
   13.1495   -1.6087   23.4247 Cl  0  0  0  0  0  0  0  0  0  0  0  0
   10.5516   -1.5938   23.4036 C   0  0  0  0  0  0  0  0  0  0  0  0
    9.2453   -1.9027   24.0730 C   0  0  0  0  0  0  0  0  0  0  0  0
    6.3564   -0.0839   20.1764 C   0  0  0  0  0  0  0  0  0  0  0  0
    6.3754   -0.7520   18.8336 C   0  0  0  0  0  0  0  0  0  0  0  0
    5.5056   -0.2351   17.7263 N   0  0  0  0  0  0  0  0  0  0  0  0
    4.6168    0.9500   17.9618 C   0  0  0  0  0  0  0  0  0  0  0  0
    4.5978    1.6182   19.3046 C   0  0  0  0  0  0  0  0  0  0  0  0
    3.7089    2.8034   19.5401 C   0  0  0  0  0  0  0  0  0  0  0  0
    3.6900    3.4715   20.8830 C   0  0  0  0  0  0  0  0  0  0  0  0
    4.5598    2.9545   21.9902 C   0  0  0  0  0  0  0  0  0  0  0  0
    5.4486    1.7694   21.7547 C   0  0  0  0  0  0  0  0  0  0  0  0
    5.4676    1.1013   20.4119 C   0  0  0  0  0  0  0  0  0  0  0  0
   10.5976   -1.4176   23.0248 O   0  0  0  0  0  0  0  0  0  0  0  0
   11.2018    1.1085   23.0848 C   0  0  0  0  0  0  0  0  0  0  0  0
   11.6011   -0.3173   22.8451 C   0  0  0  0  0  0  0  0  0  0  0  0
    5.3263   -2.8294   26.0814 C   0  0  0  0  0  0  0  0  0  0  0  0
    4.9532   -4.2517   26.3776 C   0  0  0  0  0  0  0  0  0  0  0  0
    5.0281   -5.2877   25.2954 O   0  0  0  0  0  0  0  0  0  0  0  0
    4.5051   -4.6380   27.7559 N   0  0  0  0  0  0  0  0  0  0  0  0
    4.1320   -6.0604   28.0522 C   0  0  0  0  0  0  0  0  0  0  0  0
    4.4559   -3.9580   28.4662 H   0  0  0  0  0  0  0  0  0  0  0  0
 29 30  1  0  0  0
 30 28  1  0  0  0
  1 28  1  0  0  0
  1  2  1  0  0  0
  2  3  1  0  0  0
  3 18  1  0  0  0
 18 19  2  0  0  0
 19 20  1  0  0  0
 20 21  2  0  0  0
 21 22  1  0  0  0
 22 23  2  0  0  0
 23 24  1  0  0  0
 24 25  2  0  0  0
 25 26  1  0  0  0
 26 27  2  0  0  0
  3  4  1  0  0  0
  4  5  2  0  0  0
  4  6  1  0  0  0
  6  7  1  0  0  0
  7  8  1  0  0  0
  8 31  1  0  0  0
 31 32  1  0  0  0
 32 33  2  0  0  0
 32 34  1  0  0  0
 34 35  1  0  0  0
  8  9  1  0  0  0
  9 10  2  0  0  0
  9 11  1  0  0  0
 11 12  2  0  0  0
 12 13  1  0  0  0
 13 14  2  0  0  0
 14 15  1  0  0  0
 14 16  1  0  0  0
 16 17  2  0  0  0
  6  1  1  0  0  0
 17 11  1  0  0  0
 27 18  1  0  0  0
 17  6  1  0  0  0
 27 22  1  0  0  0
 34 36  1  0  0  0
M  END
> <minimizedAffinity>
-8.29918

> <CNNscore>
0.4279983342

> <CNNaffinity>
6.4707603455

> <CNN_VS>
2.7694747448

> <CNNaffinity_variance>
0.0683492720

$$$$



 36 40  0  0  0  0  0  0  0  0999 V2000
    9.3608   -2.0800   24.9414 C   0  0  0  0  0  0  0  0  0  0  0  0
    8.5880   -3.1358   25.6750 C   0  0  0  0  0  0  0  0  0  0  0  0
    7.1299   -2.9206   25.3964 N   0  0  0  0  0  0  0  0  0  0  0  0
    7.0015   -1.7318   24.4907 C   0  0  0  0  0  0  0  0  0  0  0  0
    5.7195   -1.1624   23.9595 O   0  0  0  0  0  0  0  0  0  0  0  0
    8.3803   -1.2123   24.2095 C   0  0  0  0  0  0  0  0  0  0  0  0
    7.2870   -0.4358   23.5374 C   0  0  0  0  0  0  0  0  0  0  0  0
    7.6258    0.7442   22.6756 N   0  0  0  0  0  0  0  0  0  0  0  0
    9.0579    1.1478   22.4859 C   0  0  0  0  0  0  0  0  0  0  0  0
    9.3968    2.3279   21.6241 O   0  0  0  0  0  0  0  0  0  0  0  0
   10.1514    0.3714   23.1580 C   0  0  0  0  0  0  0  0  0  0  0  0
   11.5835    0.7750   22.9684 C   0  0  0  0  0  0  0  0  0  0  0  0
   12.6768   -0.0014   23.6405 C   0  0  0  0  0  0  0  0  0  0  0  0
   12.3380   -1.1814   24.5023 C   0  0  0  0  0  0  0  0  0  0  0  0
   13.4314   -1.9578   25.1744 Cl  0  0  0  0  0  0  0  0  0  0  0  0
   10.9058   -1.5851   24.6920 C   0  0  0  0  0  0  0  0  0  0  0  0
    9.8125   -0.8086   24.0198 C   0  0  0  0  0  0  0  0  0  0  0  0
    5.9987   -3.7487   25.9299 C   0  0  0  0  0  0  0  0  0  0  0  0
    5.6505   -3.6925   27.3878 C   0  0  0  0  0  0  0  0  0  0  0  0
    4.5194   -4.5206   27.9212 N   0  0  0  0  0  0  0  0  0  0  0  0
    3.7363   -5.4050   26.9967 C   0  0  0  0  0  0  0  0  0  0  0  0
    4.0845   -5.4612   25.5387 C   0  0  0  0  0  0  0  0  0  0  0  0
    3.3014   -6.3457   24.6142 C   0  0  0  0  0  0  0  0  0  0  0  0
    3.6496   -6.4018   23.1563 C   0  0  0  0  0  0  0  0  0  0  0  0
    4.7808   -5.5737   22.6229 C   0  0  0  0  0  0  0  0  0  0  0  0
    5.5638   -4.6893   23.5474 C   0  0  0  0  0  0  0  0  0  0  0  0
    5.2157   -4.6331   25.0053 C   0  0  0  0  0  0  0  0  0  0  0  0
   10.8522   -1.9201   24.9400 O   0  0  0  0  0  0  0  0  0  0  0  0
   11.1054   -4.1246   26.2913 C   0  0  0  0  0  0  0  0  0  0  0  0
   11.7108   -2.8847   25.7032 C   0  0  0  0  0  0  0  0  0  0  0  0
    6.5324    1.5206   22.0034 C   0  0  0  0  0  0  0  0  0  0  0  0
    6.1312    1.1872   20.5971 C   0  0  0  0  0  0  0  0  0  0  0  0
    7.0853    0.4586   19.6977 O   0  0  0  0  0  0  0  0  0  0  0  0
    4.7759    1.5824   20.0902 N   0  0  0  0  0  0  0  0  0  0  0  0
    4.3747    1.2489   18.6838 C   0  0  0  0  0  0  0  0  0  0  0  0
    4.1498    2.0606   20.6805 H   0  0  0  0  0  0  0  0  0  0  0  0
 29 30  1  0  0  0
 30 28  1  0  0  0
  1 28  1  0  0  0
  1  2  1  0  0  0
  2  3  1  0  0  0
  3 18  1  0  0  0
 18 19  2  0  0  0
 19 20  1  0  0  0
 20 21  2  0  0  0
 21 22  1  0  0  0
 22 23  2  0  0  0
 23 24  1  0  0  0
 24 25  2  0  0  0
 25 26  1  0  0  0
 26 27  2  0  0  0
  3  4  1  0  0  0
  4  5  2  0  0  0
  4  6  1  0  0  0
  6  7  1  0  0  0
  7  8  1  0  0  0
  8 31  1  0  0  0
 31 32  1  0  0  0
 32 33  2  0  0  0
 32 34  1  0  0  0
 34 35  1  0  0  0
  8  9  1  0  0  0
  9 10  2  0  0  0
  9 11  1  0  0  0
 11 12  2  0  0  0
 12 13  1  0  0  0
 13 14  2  0  0  0
 14 15  1  0  0  0
 14 16  1  0  0  0
 16 17  2  0  0  0
  6  1  1  0  0  0
 17 11  1  0  0  0
 27 18  1  0  0  0
 17  6  1  0  0  0
 27 22  1  0  0  0
 34 36  1  0  0  0
M  END
> <minimizedAffinity>
-8.18996

> <CNNscore>
0.4056393206

> <CNNaffinity>
6.4934720993

> <CNN_VS>
2.6340076923

> <CNNaffinity_variance>
0.0720896646

$$$$
