


 36 40  0  0  0  0  0  0  0  0999 V2000
   -8.4488   -0.1454  -22.0487 C   0  0  0  0  0  0  0  0  0  0  0  0
   -9.2374    1.1292  -22.1097 C   0  0  0  0  0  0  0  0  0  0  0  0
  -10.4024    0.9100  -23.0287 N   0  0  0  0  0  0  0  0  0  0  0  0
  -10.3339   -0.5001  -23.5357 C   0  0  0  0  0  0  0  0  0  0  0  0
  -11.3027   -1.1447  -24.4822 O   0  0  0  0  0  0  0  0  0  0  0  0
   -9.1265   -1.1524  -22.9300 C   0  0  0  0  0  0  0  0  0  0  0  0
   -9.9102   -2.0479  -23.8432 C   0  0  0  0  0  0  0  0  0  0  0  0
   -9.4596   -3.4593  -24.0777 N   0  0  0  0  0  0  0  0  0  0  0  0
   -8.2254   -3.9751  -23.3991 C   0  0  0  0  0  0  0  0  0  0  0  0
   -7.7748   -5.3865  -23.6336 O   0  0  0  0  0  0  0  0  0  0  0  0
   -7.4417   -3.0796  -22.4859 C   0  0  0  0  0  0  0  0  0  0  0  0
   -6.2074   -3.5954  -21.8073 C   0  0  0  0  0  0  0  0  0  0  0  0
   -5.4238   -2.6998  -20.8941 C   0  0  0  0  0  0  0  0  0  0  0  0
   -5.8744   -1.2885  -20.6596 C   0  0  0  0  0  0  0  0  0  0  0  0
   -5.0906   -0.3929  -19.7464 Cl  0  0  0  0  0  0  0  0  0  0  0  0
   -7.1086   -0.7726  -21.3382 C   0  0  0  0  0  0  0  0  0  0  0  0
   -7.8922   -1.6682  -22.2514 C   0  0  0  0  0  0  0  0  0  0  0  0
  -11.4517    1.9229  -23.3792 C   0  0  0  0  0  0  0  0  0  0  0  0
  -12.7720    1.9121  -22.6674 C   0  0  0  0  0  0  0  0  0  0  0  0
  -13.8213    2.9250  -23.0179 N   0  0  0  0  0  0  0  0  0  0  0  0
  -13.5503    3.9488  -24.0801 C   0  0  0  0  0  0  0  0  0  0  0  0
  -12.2300    3.9596  -24.7919 C   0  0  0  0  0  0  0  0  0  0  0  0
  -11.9590    4.9835  -25.8542 C   0  0  0  0  0  0  0  0  0  0  0  0
  -10.6386    4.9942  -26.5659 C   0  0  0  0  0  0  0  0  0  0  0  0
   -9.5894    3.9813  -26.2154 C   0  0  0  0  0  0  0  0  0  0  0  0
   -9.8604    2.9575  -25.1532 C   0  0  0  0  0  0  0  0  0  0  0  0
  -11.1806    2.9467  -24.4414 C   0  0  0  0  0  0  0  0  0  0  0  0
   -7.2016   -0.3730  -21.2471 O   0  0  0  0  0  0  0  0  0  0  0  0
   -6.1549    1.7765  -22.2640 C   0  0  0  0  0  0  0  0  0  0  0  0
   -6.0487    0.5792  -21.3669 C   0  0  0  0  0  0  0  0  0  0  0  0
  -10.2433   -4.3548  -24.9909 C   0  0  0  0  0  0  0  0  0  0  0  0
   -9.7459   -4.6312  -26.3787 C   0  0  0  0  0  0  0  0  0  0  0  0
   -9.5454   -3.4997  -27.3428 O   0  0  0  0  0  0  0  0  0  0  0  0
   -9.4490   -6.0391  -26.8025 N   0  0  0  0  0  0  0  0  0  0  0  0
   -8.9515   -6.3156  -28.1904 C   0  0  0  0  0  0  0  0  0  0  0  0
   -9.5806   -6.7818  -26.1697 H   0  0  0  0  0  0  0  0  0  0  0  0
 29 30  1  0  0  0
 30 28  1  0  0  0
  1 28  1  0  0  0
  1  2  1  0  0  0
  2  3  1  0  0  0
  3 18  1  0  0  0
 18 19  2  0  0  0
 19 20  1  0  0  0
 20 21  2  0  0  0
 21 22  1  0  0  0
 22 23  2  0  0  0
 23 24  1  0  0  0
 24 25  2  0  0  0
 25 26  1  0  0  0
 26 27  2  0  0  0
  3  4  1  0  0  0
  4  5  2  0  0  0
  4  6  1  0  0  0
  6  7  1  0  0  0
  7  8  1  0  0  0
  8 31  1  0  0  0
 31 32  1  0  0  0
 32 33  2  0  0  0
 32 34  1  0  0  0
 34 35  1  0  0  0
  8  9  1  0  0  0
  9 10  2  0  0  0
  9 11  1  0  0  0
 11 12  2  0  0  0
 12 13  1  0  0  0
 13 14  2  0  0  0
 14 15  1  0  0  0
 14 16  1  0  0  0
 16 17  2  0  0  0
  6  1  1  0  0  0
 17 11  1  0  0  0
 27 18  1  0  0  0
 17  6  1  0  0  0
 27 22  1  0  0  0
 34 36  1  0  0  0
M  END
> <minimizedAffinity>
-8.24261

> <CNNscore>
0.6161475182

> <CNNaffinity>
6.3301553726

> <CNN_VS>
3.9003095627

> <CNNaffinity_variance>
0.1713190377

$$$$



 36 40  0  0  0  0  0  0  0  0999 V2000
   -8.3195   -2.5881  -22.7343 C   0  0  0  0  0  0  0  0  0  0  0  0
   -8.0202   -1.4593  -21.7929 C   0  0  0  0  0  0  0  0  0  0  0  0
   -6.7551   -1.7915  -21.0584 N   0  0  0  0  0  0  0  0  0  0  0  0
   -6.2727   -3.1255  -21.5460 C   0  0  0  0  0  0  0  0  0  0  0  0
   -5.0399   -3.8414  -21.0796 O   0  0  0  0  0  0  0  0  0  0  0  0
   -7.2396   -3.6178  -22.5817 C   0  0  0  0  0  0  0  0  0  0  0  0
   -6.0960   -4.5528  -22.3213 C   0  0  0  0  0  0  0  0  0  0  0  0
   -5.9997   -5.8475  -23.0726 N   0  0  0  0  0  0  0  0  0  0  0  0
   -7.0471   -6.2073  -24.0843 C   0  0  0  0  0  0  0  0  0  0  0  0
   -6.9509   -7.5020  -24.8356 O   0  0  0  0  0  0  0  0  0  0  0  0
   -8.1908   -5.2722  -24.3447 C   0  0  0  0  0  0  0  0  0  0  0  0
   -9.2382   -5.6320  -25.3564 C   0  0  0  0  0  0  0  0  0  0  0  0
  -10.3818   -4.6970  -25.6168 C   0  0  0  0  0  0  0  0  0  0  0  0
  -10.4781   -3.4022  -24.8655 C   0  0  0  0  0  0  0  0  0  0  0  0
  -11.6218   -2.4672  -25.1260 Cl  0  0  0  0  0  0  0  0  0  0  0  0
   -9.4307   -3.0425  -23.8539 C   0  0  0  0  0  0  0  0  0  0  0  0
   -8.2870   -3.9775  -23.5935 C   0  0  0  0  0  0  0  0  0  0  0  0
   -6.0894   -0.9393  -20.0189 C   0  0  0  0  0  0  0  0  0  0  0  0
   -6.6126   -0.9250  -18.6133 C   0  0  0  0  0  0  0  0  0  0  0  0
   -5.9469   -0.0728  -17.5738 N   0  0  0  0  0  0  0  0  0  0  0  0
   -4.7579    0.7651  -17.9400 C   0  0  0  0  0  0  0  0  0  0  0  0
   -4.2347    0.7509  -19.3458 C   0  0  0  0  0  0  0  0  0  0  0  0
   -3.0456    1.5889  -19.7120 C   0  0  0  0  0  0  0  0  0  0  0  0
   -2.5224    1.5745  -21.1177 C   0  0  0  0  0  0  0  0  0  0  0  0
   -3.1882    0.7223  -22.1571 C   0  0  0  0  0  0  0  0  0  0  0  0
   -4.3772   -0.1156  -21.7909 C   0  0  0  0  0  0  0  0  0  0  0  0
   -4.9004   -0.1013  -20.3853 C   0  0  0  0  0  0  0  0  0  0  0  0
   -9.4929   -2.6722  -23.6650 O   0  0  0  0  0  0  0  0  0  0  0  0
  -10.4929   -0.2977  -23.3312 C   0  0  0  0  0  0  0  0  0  0  0  0
  -10.6809   -1.7805  -23.4568 C   0  0  0  0  0  0  0  0  0  0  0  0
   -4.8560   -6.7826  -22.8122 C   0  0  0  0  0  0  0  0  0  0  0  0
   -3.6750   -6.7987  -23.7367 C   0  0  0  0  0  0  0  0  0  0  0  0
   -2.4574   -7.6007  -23.3842 O   0  0  0  0  0  0  0  0  0  0  0  0
   -3.7115   -6.0128  -25.0138 N   0  0  0  0  0  0  0  0  0  0  0  0
   -2.5304   -6.0289  -25.9384 C   0  0  0  0  0  0  0  0  0  0  0  0
   -4.5107   -5.4864  -25.2452 H   0  0  0  0  0  0  0  0  0  0  0  0
 29 30  1  0  0  0
 30 28  1  0  0  0
  1 28  1  0  0  0
  1  2  1  0  0  0
  2  3  1  0  0  0
  3 18  1  0  0  0
 18 19  2  0  0  0
 19 20  1  0  0  0
 20 21  2  0  0  0
 21 22  1  0  0  0
 22 23  2  0  0  0
 23 24  1  0  0  0
 24 25  2  0  0  0
 25 26  1  0  0  0
 26 27  2  0  0  0
  3  4  1  0  0  0
  4  5  2  0  0  0
  4  6  1  0  0  0
  6  7  1  0  0  0
  7  8  1  0  0  0
  8 31  1  0  0  0
 31 32  1  0  0  0
 32 33  2  0  0  0
 32 34  1  0  0  0
 34 35  1  0  0  0
  8  9  1  0  0  0
  9 10  2  0  0  0
  9 11  1  0  0  0
 11 12  2  0  0  0
 12 13  1  0  0  0
 13 14  2  0  0  0
 14 15  1  0  0  0
 14 16  1  0  0  0
 16 17  2  0  0  0
  6  1  1  0  0  0
 17 11  1  0  0  0
 27 18  1  0  0  0
 17  6  1  0  0  0
 27 22  1  0  0  0
 34 36  1  0  0  0
M  END
> <minimizedAffinity>
-7.28904

> <CNNscore>
0.5265725255

> <CNNaffinity>
6.2820053101

> <CNN_VS>
3.3079314232

> <CNNaffinity_variance>
0.0554893203

$$$$



 36 40  0  0  0  0  0  0  0  0999 V2000
   -8.7575   -2.7173  -24.3778 C   0  0  0  0  0  0  0  0  0  0  0  0
   -9.3736   -1.4177  -24.8039 C   0  0  0  0  0  0  0  0  0  0  0  0
   -8.8324   -0.3355  -23.9174 N   0  0  0  0  0  0  0  0  0  0  0  0
   -7.8819   -0.9663  -22.9434 C   0  0  0  0  0  0  0  0  0  0  0  0
   -7.1127   -0.2507  -21.8728 O   0  0  0  0  0  0  0  0  0  0  0  0
   -7.8356   -2.4384  -23.2280 C   0  0  0  0  0  0  0  0  0  0  0  0
   -6.9551   -2.0086  -22.0922 C   0  0  0  0  0  0  0  0  0  0  0  0
   -6.1316   -3.0235  -21.3561 N   0  0  0  0  0  0  0  0  0  0  0  0
   -6.1884   -4.4681  -21.7558 C   0  0  0  0  0  0  0  0  0  0  0  0
   -5.3649   -5.4829  -21.0197 O   0  0  0  0  0  0  0  0  0  0  0  0
   -7.0689   -4.8979  -22.8917 C   0  0  0  0  0  0  0  0  0  0  0  0
   -7.1258   -6.3425  -23.2914 C   0  0  0  0  0  0  0  0  0  0  0  0
   -8.0062   -6.7723  -24.4272 C   0  0  0  0  0  0  0  0  0  0  0  0
   -8.8298   -5.7574  -25.1633 C   0  0  0  0  0  0  0  0  0  0  0  0
   -9.7103   -6.1872  -26.2991 Cl  0  0  0  0  0  0  0  0  0  0  0  0
   -8.7729   -4.3128  -24.7635 C   0  0  0  0  0  0  0  0  0  0  0  0
   -7.8925   -3.8830  -23.6277 C   0  0  0  0  0  0  0  0  0  0  0  0
   -9.1806    1.1216  -23.9918 C   0  0  0  0  0  0  0  0  0  0  0  0
   -8.1021    2.1399  -24.2149 C   0  0  0  0  0  0  0  0  0  0  0  0
   -8.4503    3.5970  -24.2893 N   0  0  0  0  0  0  0  0  0  0  0  0
   -9.8770    4.0358  -24.1405 C   0  0  0  0  0  0  0  0  0  0  0  0
  -10.9554    3.0174  -23.9173 C   0  0  0  0  0  0  0  0  0  0  0  0
  -12.3822    3.4561  -23.7685 C   0  0  0  0  0  0  0  0  0  0  0  0
  -13.4606    2.4377  -23.5453 C   0  0  0  0  0  0  0  0  0  0  0  0
  -13.1123    0.9806  -23.4710 C   0  0  0  0  0  0  0  0  0  0  0  0
  -11.6857    0.5419  -23.6198 C   0  0  0  0  0  0  0  0  0  0  0  0
  -10.6073    1.5602  -23.8429 C   0  0  0  0  0  0  0  0  0  0  0  0
   -9.0177   -4.0602  -24.9936 O   0  0  0  0  0  0  0  0  0  0  0  0
   -8.1012   -3.2706  -27.2928 C   0  0  0  0  0  0  0  0  0  0  0  0
   -8.9080   -4.2383  -26.4789 C   0  0  0  0  0  0  0  0  0  0  0  0
   -5.2511   -2.5936  -20.2202 C   0  0  0  0  0  0  0  0  0  0  0  0
   -5.7514   -1.5938  -19.2202 C   0  0  0  0  0  0  0  0  0  0  0  0
   -7.1734   -1.6541  -18.7464 O   0  0  0  0  0  0  0  0  0  0  0  0
   -4.8299   -0.5338  -18.6941 N   0  0  0  0  0  0  0  0  0  0  0  0
   -5.3302    0.4661  -17.6940 C   0  0  0  0  0  0  0  0  0  0  0  0
   -3.8966   -0.4942  -19.0050 H   0  0  0  0  0  0  0  0  0  0  0  0
 29 30  1  0  0  0
 30 28  1  0  0  0
  1 28  1  0  0  0
  1  2  1  0  0  0
  2  3  1  0  0  0
  3 18  1  0  0  0
 18 19  2  0  0  0
 19 20  1  0  0  0
 20 21  2  0  0  0
 21 22  1  0  0  0
 22 23  2  0  0  0
 23 24  1  0  0  0
 24 25  2  0  0  0
 25 26  1  0  0  0
 26 27  2  0  0  0
  3  4  1  0  0  0
  4  5  2  0  0  0
  4  6  1  0  0  0
  6  7  1  0  0  0
  7  8  1  0  0  0
  8 31  1  0  0  0
 31 32  1  0  0  0
 32 33  2  0  0  0
 32 34  1  0  0  0
 34 35  1  0  0  0
  8  9  1  0  0  0
  9 10  2  0  0  0
  9 11  1  0  0  0
 11 12  2  0  0  0
 12 13  1  0  0  0
 13 14  2  0  0  0
 14 15  1  0  0  0
 14 16  1  0  0  0
 16 17  2  0  0  0
  6  1  1  0  0  0
 17 11  1  0  0  0
 27 18  1  0  0  0
 17  6  1  0  0  0
 27 22  1  0  0  0
 34 36  1  0  0  0
M  END
> <minimizedAffinity>
-8.30131

> <CNNscore>
0.4382376969

> <CNNaffinity>
6.4367113113

> <CNN_VS>
2.8208096027

> <CNNaffinity_variance>
0.1380123496

$$$$



 36 40  0  0  0  0  0  0  0  0999 V2000
   -6.9521    2.7924  -22.9459 C   0  0  0  0  0  0  0  0  0  0  0  0
   -8.3379    2.6092  -23.4901 C   0  0  0  0  0  0  0  0  0  0  0  0
   -8.9281    1.3862  -22.8529 N   0  0  0  0  0  0  0  0  0  0  0  0
   -7.9070    0.8136  -21.9150 C   0  0  0  0  0  0  0  0  0  0  0  0
   -8.0774   -0.4128  -21.0683 O   0  0  0  0  0  0  0  0  0  0  0  0
   -6.6858    1.6827  -21.9725 C   0  0  0  0  0  0  0  0  0  0  0  0
   -6.5643    0.5213  -21.0311 C   0  0  0  0  0  0  0  0  0  0  0  0
   -5.2990    0.3166  -20.2519 N   0  0  0  0  0  0  0  0  0  0  0  0
   -4.1552    1.2734  -20.4141 C   0  0  0  0  0  0  0  0  0  0  0  0
   -2.8899    1.0687  -19.6349 O   0  0  0  0  0  0  0  0  0  0  0  0
   -4.2768    2.4349  -21.3555 C   0  0  0  0  0  0  0  0  0  0  0  0
   -3.1330    3.3917  -21.5177 C   0  0  0  0  0  0  0  0  0  0  0  0
   -3.2546    4.5532  -22.4590 C   0  0  0  0  0  0  0  0  0  0  0  0
   -4.5199    4.7578  -23.2382 C   0  0  0  0  0  0  0  0  0  0  0  0
   -4.6414    5.9194  -24.1796 Cl  0  0  0  0  0  0  0  0  0  0  0  0
   -5.6636    3.8011  -23.0760 C   0  0  0  0  0  0  0  0  0  0  0  0
   -5.5421    2.6396  -22.1347 C   0  0  0  0  0  0  0  0  0  0  0  0
  -10.2986    0.8329  -23.1088 C   0  0  0  0  0  0  0  0  0  0  0  0
  -11.5055    1.7045  -22.9259 C   0  0  0  0  0  0  0  0  0  0  0  0
  -12.8760    1.1512  -23.1817 N   0  0  0  0  0  0  0  0  0  0  0  0
  -13.0396   -0.2738  -23.6205 C   0  0  0  0  0  0  0  0  0  0  0  0
  -11.8326   -1.1455  -23.8034 C   0  0  0  0  0  0  0  0  0  0  0  0
  -11.9963   -2.5706  -24.2422 C   0  0  0  0  0  0  0  0  0  0  0  0
  -10.7893   -3.4422  -24.4250 C   0  0  0  0  0  0  0  0  0  0  0  0
   -9.4188   -2.8889  -24.1692 C   0  0  0  0  0  0  0  0  0  0  0  0
   -9.2552   -1.4639  -23.7304 C   0  0  0  0  0  0  0  0  0  0  0  0
  -10.4621   -0.5922  -23.5475 C   0  0  0  0  0  0  0  0  0  0  0  0
   -5.9999    3.8924  -23.3111 O   0  0  0  0  0  0  0  0  0  0  0  0
   -7.6518    5.6878  -22.4182 C   0  0  0  0  0  0  0  0  0  0  0  0
   -6.4370    5.3243  -23.2193 C   0  0  0  0  0  0  0  0  0  0  0  0
   -5.1775   -0.8449  -19.3105 C   0  0  0  0  0  0  0  0  0  0  0  0
   -5.3711   -2.2437  -19.8163 C   0  0  0  0  0  0  0  0  0  0  0  0
   -5.1681   -3.4094  -18.8945 O   0  0  0  0  0  0  0  0  0  0  0  0
   -5.7678   -2.4767  -21.2440 N   0  0  0  0  0  0  0  0  0  0  0  0
   -5.9615   -3.8756  -21.7499 C   0  0  0  0  0  0  0  0  0  0  0  0
   -5.9011   -1.7116  -21.8490 H   0  0  0  0  0  0  0  0  0  0  0  0
 29 30  1  0  0  0
 30 28  1  0  0  0
  1 28  1  0  0  0
  1  2  1  0  0  0
  2  3  1  0  0  0
  3 18  1  0  0  0
 18 19  2  0  0  0
 19 20  1  0  0  0
 20 21  2  0  0  0
 21 22  1  0  0  0
 22 23  2  0  0  0
 23 24  1  0  0  0
 24 25  2  0  0  0
 25 26  1  0  0  0
 26 27  2  0  0  0
  3  4  1  0  0  0
  4  5  2  0  0  0
  4  6  1  0  0  0
  6  7  1  0  0  0
  7  8  1  0  0  0
  8 31  1  0  0  0
 31 32  1  0  0  0
 32 33  2  0  0  0
 32 34  1  0  0  0
 34 35  1  0  0  0
  8  9  1  0  0  0
  9 10  2  0  0  0
  9 11  1  0  0  0
 11 12  2  0  0  0
 12 13  1  0  0  0
 13 14  2  0  0  0
 14 15  1  0  0  0
 14 16  1  0  0  0
 16 17  2  0  0  0
  6  1  1  0  0  0
 17 11  1  0  0  0
 27 18  1  0  0  0
 17  6  1  0  0  0
 27 22  1  0  0  0
 34 36  1  0  0  0
M  END
> <minimizedAffinity>
-7.90813

> <CNNscore>
0.3837022185

> <CNNaffinity>
6.1997199059

> <CNN_VS>
2.3788461685

> <CNNaffinity_variance>
0.0422270633

$$$$



 36 40  0  0  0  0  0  0  0  0999 V2000
   -6.7914    2.9268  -22.9694 C   0  0  0  0  0  0  0  0  0  0  0  0
   -8.1582    2.8714  -23.5849 C   0  0  0  0  0  0  0  0  0  0  0  0
   -8.8754    1.6836  -23.0149 N   0  0  0  0  0  0  0  0  0  0  0  0
   -7.9519    1.0050  -22.0472 C   0  0  0  0  0  0  0  0  0  0  0  0
   -8.2619   -0.2259  -21.2479 O   0  0  0  0  0  0  0  0  0  0  0  0
   -6.6639    1.7733  -22.0190 C   0  0  0  0  0  0  0  0  0  0  0  0
   -6.6829    0.5809  -21.1093 C   0  0  0  0  0  0  0  0  0  0  0  0
   -5.4789    0.2532  -20.2769 N   0  0  0  0  0  0  0  0  0  0  0  0
   -4.2557    1.1180  -20.3543 C   0  0  0  0  0  0  0  0  0  0  0  0
   -3.0516    0.7903  -19.5220 O   0  0  0  0  0  0  0  0  0  0  0  0
   -4.2366    2.3105  -21.2641 C   0  0  0  0  0  0  0  0  0  0  0  0
   -3.0134    3.1752  -21.3415 C   0  0  0  0  0  0  0  0  0  0  0  0
   -2.9944    4.3676  -22.2513 C   0  0  0  0  0  0  0  0  0  0  0  0
   -4.1984    4.6953  -23.0836 C   0  0  0  0  0  0  0  0  0  0  0  0
   -4.1793    5.8878  -23.9934 Cl  0  0  0  0  0  0  0  0  0  0  0  0
   -5.4216    3.8305  -23.0062 C   0  0  0  0  0  0  0  0  0  0  0  0
   -5.4407    2.6381  -22.0965 C   0  0  0  0  0  0  0  0  0  0  0  0
  -10.2711    1.2506  -23.3533 C   0  0  0  0  0  0  0  0  0  0  0  0
  -10.5674   -0.1989  -23.6005 C   0  0  0  0  0  0  0  0  0  0  0  0
  -11.9631   -0.6319  -23.9388 N   0  0  0  0  0  0  0  0  0  0  0  0
  -13.0624    0.3845  -24.0300 C   0  0  0  0  0  0  0  0  0  0  0  0
  -12.7661    1.8340  -23.7828 C   0  0  0  0  0  0  0  0  0  0  0  0
  -13.8655    2.8505  -23.8740 C   0  0  0  0  0  0  0  0  0  0  0  0
  -13.5690    4.3000  -23.6268 C   0  0  0  0  0  0  0  0  0  0  0  0
  -12.1733    4.7330  -23.2884 C   0  0  0  0  0  0  0  0  0  0  0  0
  -11.0740    3.7165  -23.1973 C   0  0  0  0  0  0  0  0  0  0  0  0
  -11.3704    2.2671  -23.4444 C   0  0  0  0  0  0  0  0  0  0  0  0
   -5.7372    3.9552  -23.2543 O   0  0  0  0  0  0  0  0  0  0  0  0
   -7.2765    5.8234  -22.3106 C   0  0  0  0  0  0  0  0  0  0  0  0
   -6.0296    5.4099  -23.0346 C   0  0  0  0  0  0  0  0  0  0  0  0
   -5.4980   -0.9393  -19.3671 C   0  0  0  0  0  0  0  0  0  0  0  0
   -5.5448   -2.3228  -19.9449 C   0  0  0  0  0  0  0  0  0  0  0  0
   -5.1183   -3.4970  -19.1147 O   0  0  0  0  0  0  0  0  0  0  0  0
   -6.0181   -2.5319  -21.3527 N   0  0  0  0  0  0  0  0  0  0  0  0
   -6.0649   -3.9154  -21.9306 C   0  0  0  0  0  0  0  0  0  0  0  0
   -6.2980   -1.7612  -21.8976 H   0  0  0  0  0  0  0  0  0  0  0  0
 29 30  1  0  0  0
 30 28  1  0  0  0
  1 28  1  0  0  0
  1  2  1  0  0  0
  2  3  1  0  0  0
  3 18  1  0  0  0
 18 19  2  0  0  0
 19 20  1  0  0  0
 20 21  2  0  0  0
 21 22  1  0  0  0
 22 23  2  0  0  0
 23 24  1  0  0  0
 24 25  2  0  0  0
 25 26  1  0  0  0
 26 27  2  0  0  0
  3  4  1  0  0  0
  4  5  2  0  0  0
  4  6  1  0  0  0
  6  7  1  0  0  0
  7  8  1  0  0  0
  8 31  1  0  0  0
 31 32  1  0  0  0
 32 33  2  0  0  0
 32 34  1  0  0  0
 34 35  1  0  0  0
  8  9  1  0  0  0
  9 10  2  0  0  0
  9 11  1  0  0  0
 11 12  2  0  0  0
 12 13  1  0  0  0
 13 14  2  0  0  0
 14 15  1  0  0  0
 14 16  1  0  0  0
 16 17  2  0  0  0
  6  1  1  0  0  0
 17 11  1  0  0  0
 27 18  1  0  0  0
 17  6  1  0  0  0
 27 22  1  0  0  0
 34 36  1  0  0  0
M  END
> <minimizedAffinity>
-8.26316

> <CNNscore>
0.3229901195

> <CNNaffinity>
5.9363741875

> <CNN_VS>
1.9173902273

> <CNNaffinity_variance>
0.3415848613

$$$$



 36 40  0  0  0  0  0  0  0  0999 V2000
   -6.3541   -4.1284  -22.7541 C   0  0  0  0  0  0  0  0  0  0  0  0
   -5.4854   -3.4349  -21.7468 C   0  0  0  0  0  0  0  0  0  0  0  0
   -6.2638   -2.2868  -21.1758 N   0  0  0  0  0  0  0  0  0  0  0  0
   -7.6134   -2.2707  -21.8303 C   0  0  0  0  0  0  0  0  0  0  0  0
   -8.7140   -1.2889  -21.5571 O   0  0  0  0  0  0  0  0  0  0  0  0
   -7.6692   -3.4089  -22.8057 C   0  0  0  0  0  0  0  0  0  0  0  0
   -8.9264   -2.5927  -22.7480 C   0  0  0  0  0  0  0  0  0  0  0  0
  -10.0925   -2.9488  -23.6216 N   0  0  0  0  0  0  0  0  0  0  0  0
  -10.0016   -4.1212  -24.5529 C   0  0  0  0  0  0  0  0  0  0  0  0
  -11.1678   -4.4773  -25.4265 O   0  0  0  0  0  0  0  0  0  0  0  0
   -8.7444   -4.9374  -24.6106 C   0  0  0  0  0  0  0  0  0  0  0  0
   -8.6534   -6.1097  -25.5419 C   0  0  0  0  0  0  0  0  0  0  0  0
   -7.3963   -6.9259  -25.5996 C   0  0  0  0  0  0  0  0  0  0  0  0
   -6.2301   -6.5698  -24.7260 C   0  0  0  0  0  0  0  0  0  0  0  0
   -4.9729   -7.3860  -24.7837 Cl  0  0  0  0  0  0  0  0  0  0  0  0
   -6.3211   -5.3975  -23.7947 C   0  0  0  0  0  0  0  0  0  0  0  0
   -7.5782   -4.5813  -23.7370 C   0  0  0  0  0  0  0  0  0  0  0  0
   -5.7779   -1.3238  -20.1334 C   0  0  0  0  0  0  0  0  0  0  0  0
   -6.2984   -1.4127  -18.7295 C   0  0  0  0  0  0  0  0  0  0  0  0
   -5.8125   -0.4497  -17.6872 N   0  0  0  0  0  0  0  0  0  0  0  0
   -4.8060    0.6021  -18.0488 C   0  0  0  0  0  0  0  0  0  0  0  0
   -4.2855    0.6909  -19.4528 C   0  0  0  0  0  0  0  0  0  0  0  0
   -3.2790    1.7428  -19.8144 C   0  0  0  0  0  0  0  0  0  0  0  0
   -2.7585    1.8315  -21.2184 C   0  0  0  0  0  0  0  0  0  0  0  0
   -3.2445    0.8686  -22.2607 C   0  0  0  0  0  0  0  0  0  0  0  0
   -4.2509   -0.1832  -21.8991 C   0  0  0  0  0  0  0  0  0  0  0  0
   -4.7714   -0.2721  -20.4952 C   0  0  0  0  0  0  0  0  0  0  0  0
   -5.9741   -5.3303  -23.5671 O   0  0  0  0  0  0  0  0  0  0  0  0
   -5.7513   -6.7974  -21.4345 C   0  0  0  0  0  0  0  0  0  0  0  0
   -5.4580   -6.5635  -22.8868 C   0  0  0  0  0  0  0  0  0  0  0  0
  -11.3497   -2.1326  -23.5639 C   0  0  0  0  0  0  0  0  0  0  0  0
  -11.2900   -0.6478  -23.7682 C   0  0  0  0  0  0  0  0  0  0  0  0
  -10.1607   -0.0429  -24.5486 O   0  0  0  0  0  0  0  0  0  0  0  0
  -12.3594    0.2322  -23.1921 N   0  0  0  0  0  0  0  0  0  0  0  0
  -12.2996    1.7170  -23.3964 C   0  0  0  0  0  0  0  0  0  0  0  0
  -13.1005   -0.1648  -22.6799 H   0  0  0  0  0  0  0  0  0  0  0  0
 29 30  1  0  0  0
 30 28  1  0  0  0
  1 28  1  0  0  0
  1  2  1  0  0  0
  2  3  1  0  0  0
  3 18  1  0  0  0
 18 19  2  0  0  0
 19 20  1  0  0  0
 20 21  2  0  0  0
 21 22  1  0  0  0
 22 23  2  0  0  0
 23 24  1  0  0  0
 24 25  2  0  0  0
 25 26  1  0  0  0
 26 27  2  0  0  0
  3  4  1  0  0  0
  4  5  2  0  0  0
  4  6  1  0  0  0
  6  7  1  0  0  0
  7  8  1  0  0  0
  8 31  1  0  0  0
 31 32  1  0  0  0
 32 33  2  0  0  0
 32 34  1  0  0  0
 34 35  1  0  0  0
  8  9  1  0  0  0
  9 10  2  0  0  0
  9 11  1  0  0  0
 11 12  2  0  0  0
 12 13  1  0  0  0
 13 14  2  0  0  0
 14 15  1  0  0  0
 14 16  1  0  0  0
 16 17  2  0  0  0
  6  1  1  0  0  0
 17 11  1  0  0  0
 27 18  1  0  0  0
 17  6  1  0  0  0
 27 22  1  0  0  0
 34 36  1  0  0  0
M  END
> <minimizedAffinity>
-8.64962

> <CNNscore>
0.3184753060

> <CNNaffinity>
6.0368127823

> <CNN_VS>
1.9225758314

> <CNNaffinity_variance>
0.3636838794

$$$$



 36 40  0  0  0  0  0  0  0  0999 V2000
   -7.0710   -3.6440  -23.0476 C   0  0  0  0  0  0  0  0  0  0  0  0
   -6.5990   -3.2726  -21.6731 C   0  0  0  0  0  0  0  0  0  0  0  0
   -6.3828   -1.7885  -21.6426 N   0  0  0  0  0  0  0  0  0  0  0  0
   -6.7212   -1.2429  -22.9982 C   0  0  0  0  0  0  0  0  0  0  0  0
   -6.6473    0.1969  -23.4127 O   0  0  0  0  0  0  0  0  0  0  0  0
   -7.1465   -2.3896  -23.8666 C   0  0  0  0  0  0  0  0  0  0  0  0
   -7.1723   -1.0586  -24.5578 C   0  0  0  0  0  0  0  0  0  0  0  0
   -7.5983   -0.9670  -25.9931 N   0  0  0  0  0  0  0  0  0  0  0  0
   -7.9985   -2.2064  -26.7372 C   0  0  0  0  0  0  0  0  0  0  0  0
   -8.4245   -2.1148  -28.1725 O   0  0  0  0  0  0  0  0  0  0  0  0
   -7.9727   -3.5375  -26.0460 C   0  0  0  0  0  0  0  0  0  0  0  0
   -8.3729   -4.7769  -26.7901 C   0  0  0  0  0  0  0  0  0  0  0  0
   -8.3471   -6.1078  -26.0989 C   0  0  0  0  0  0  0  0  0  0  0  0
   -7.9211   -6.1994  -24.6636 C   0  0  0  0  0  0  0  0  0  0  0  0
   -7.8953   -7.5305  -23.9724 Cl  0  0  0  0  0  0  0  0  0  0  0  0
   -7.5209   -4.9600  -23.9195 C   0  0  0  0  0  0  0  0  0  0  0  0
   -7.5467   -3.6291  -24.6107 C   0  0  0  0  0  0  0  0  0  0  0  0
   -5.9111   -0.9903  -20.4635 C   0  0  0  0  0  0  0  0  0  0  0  0
   -6.6354   -1.0878  -19.1536 C   0  0  0  0  0  0  0  0  0  0  0  0
   -6.1637   -0.2896  -17.9745 N   0  0  0  0  0  0  0  0  0  0  0  0
   -4.9677    0.6061  -18.1053 C   0  0  0  0  0  0  0  0  0  0  0  0
   -4.2433    0.7036  -19.4152 C   0  0  0  0  0  0  0  0  0  0  0  0
   -3.0472    1.5993  -19.5460 C   0  0  0  0  0  0  0  0  0  0  0  0
   -2.3229    1.6967  -20.8559 C   0  0  0  0  0  0  0  0  0  0  0  0
   -2.7946    0.8985  -22.0349 C   0  0  0  0  0  0  0  0  0  0  0  0
   -3.9907    0.0028  -21.9041 C   0  0  0  0  0  0  0  0  0  0  0  0
   -4.7150   -0.0946  -20.5943 C   0  0  0  0  0  0  0  0  0  0  0  0
   -7.4082   -5.0271  -23.5202 O   0  0  0  0  0  0  0  0  0  0  0  0
   -5.7176   -6.3513  -22.0580 C   0  0  0  0  0  0  0  0  0  0  0  0
   -7.0839   -6.2132  -22.6611 C   0  0  0  0  0  0  0  0  0  0  0  0
   -7.6241    0.3640  -26.6843 C   0  0  0  0  0  0  0  0  0  0  0  0
   -8.4034    1.5011  -26.0931 C   0  0  0  0  0  0  0  0  0  0  0  0
   -9.5879    1.2227  -25.2160 O   0  0  0  0  0  0  0  0  0  0  0  0
   -7.9982    2.9168  -26.3790 N   0  0  0  0  0  0  0  0  0  0  0  0
   -8.7775    4.0540  -25.7878 C   0  0  0  0  0  0  0  0  0  0  0  0
   -7.2207    3.0995  -26.9547 H   0  0  0  0  0  0  0  0  0  0  0  0
 29 30  1  0  0  0
 30 28  1  0  0  0
  1 28  1  0  0  0
  1  2  1  0  0  0
  2  3  1  0  0  0
  3 18  1  0  0  0
 18 19  2  0  0  0
 19 20  1  0  0  0
 20 21  2  0  0  0
 21 22  1  0  0  0
 22 23  2  0  0  0
 23 24  1  0  0  0
 24 25  2  0  0  0
 25 26  1  0  0  0
 26 27  2  0  0  0
  3  4  1  0  0  0
  4  5  2  0  0  0
  4  6  1  0  0  0
  6  7  1  0  0  0
  7  8  1  0  0  0
  8 31  1  0  0  0
 31 32  1  0  0  0
 32 33  2  0  0  0
 32 34  1  0  0  0
 34 35  1  0  0  0
  8  9  1  0  0  0
  9 10  2  0  0  0
  9 11  1  0  0  0
 11 12  2  0  0  0
 12 13  1  0  0  0
 13 14  2  0  0  0
 14 15  1  0  0  0
 14 16  1  0  0  0
 16 17  2  0  0  0
  6  1  1  0  0  0
 17 11  1  0  0  0
 27 18  1  0  0  0
 17  6  1  0  0  0
 27 22  1  0  0  0
 34 36  1  0  0  0
M  END
> <minimizedAffinity>
-7.71091

> <CNNscore>
0.3166140020

> <CNNaffinity>
6.0450568199

> <CNN_VS>
1.9139496088

> <CNNaffinity_variance>
0.1313521564

$$$$



 36 40  0  0  0  0  0  0  0  0999 V2000
   -9.2282    0.5901  -23.4435 C   0  0  0  0  0  0  0  0  0  0  0  0
   -7.7294    0.6433  -23.4189 C   0  0  0  0  0  0  0  0  0  0  0  0
   -7.3137    2.0752  -23.5831 N   0  0  0  0  0  0  0  0  0  0  0  0
   -8.5557    2.9069  -23.7091 C   0  0  0  0  0  0  0  0  0  0  0  0
   -8.6057    4.3951  -23.8897 O   0  0  0  0  0  0  0  0  0  0  0  0
   -9.7390    1.9890  -23.6229 C   0  0  0  0  0  0  0  0  0  0  0  0
  -10.0995    3.4336  -23.8046 C   0  0  0  0  0  0  0  0  0  0  0  0
  -11.5404    3.8428  -23.8838 N   0  0  0  0  0  0  0  0  0  0  0  0
  -12.6208    2.8074  -23.7812 C   0  0  0  0  0  0  0  0  0  0  0  0
  -14.0618    3.2166  -23.8604 O   0  0  0  0  0  0  0  0  0  0  0  0
  -12.2604    1.3627  -23.5994 C   0  0  0  0  0  0  0  0  0  0  0  0
  -13.3408    0.3273  -23.4968 C   0  0  0  0  0  0  0  0  0  0  0  0
  -12.9802   -1.1174  -23.3151 C   0  0  0  0  0  0  0  0  0  0  0  0
  -11.5393   -1.5265  -23.2359 C   0  0  0  0  0  0  0  0  0  0  0  0
  -11.1788   -2.9712  -23.0541 Cl  0  0  0  0  0  0  0  0  0  0  0  0
  -10.4589   -0.4911  -23.3385 C   0  0  0  0  0  0  0  0  0  0  0  0
  -10.8194    0.9535  -23.5203 C   0  0  0  0  0  0  0  0  0  0  0  0
   -5.9037    2.5859  -23.6156 C   0  0  0  0  0  0  0  0  0  0  0  0
   -5.4262    3.3960  -24.7840 C   0  0  0  0  0  0  0  0  0  0  0  0
   -4.0161    3.9066  -24.8165 N   0  0  0  0  0  0  0  0  0  0  0  0
   -3.0837    3.6070  -23.6804 C   0  0  0  0  0  0  0  0  0  0  0  0
   -3.5613    2.7968  -22.5118 C   0  0  0  0  0  0  0  0  0  0  0  0
   -2.6287    2.4973  -21.3757 C   0  0  0  0  0  0  0  0  0  0  0  0
   -3.1064    1.6871  -20.2072 C   0  0  0  0  0  0  0  0  0  0  0  0
   -4.5164    1.1765  -20.1748 C   0  0  0  0  0  0  0  0  0  0  0  0
   -5.4489    1.4761  -21.3109 C   0  0  0  0  0  0  0  0  0  0  0  0
   -4.9713    2.2862  -22.4794 C   0  0  0  0  0  0  0  0  0  0  0  0
  -10.0688   -0.6453  -23.3118 O   0  0  0  0  0  0  0  0  0  0  0  0
   -8.4488   -1.6371  -21.5393 C   0  0  0  0  0  0  0  0  0  0  0  0
   -9.7867   -1.6314  -22.2173 C   0  0  0  0  0  0  0  0  0  0  0  0
  -11.9009    5.2875  -24.0656 C   0  0  0  0  0  0  0  0  0  0  0  0
  -12.2045    5.8181  -25.4353 C   0  0  0  0  0  0  0  0  0  0  0  0
  -11.0982    6.3567  -26.2932 O   0  0  0  0  0  0  0  0  0  0  0  0
  -13.6144    5.8101  -25.9471 N   0  0  0  0  0  0  0  0  0  0  0  0
  -13.9181    6.3408  -27.3169 C   0  0  0  0  0  0  0  0  0  0  0  0
  -14.3405    5.4566  -25.3841 H   0  0  0  0  0  0  0  0  0  0  0  0
 29 30  1  0  0  0
 30 28  1  0  0  0
  1 28  1  0  0  0
  1  2  1  0  0  0
  2  3  1  0  0  0
  3 18  1  0  0  0
 18 19  2  0  0  0
 19 20  1  0  0  0
 20 21  2  0  0  0
 21 22  1  0  0  0
 22 23  2  0  0  0
 23 24  1  0  0  0
 24 25  2  0  0  0
 25 26  1  0  0  0
 26 27  2  0  0  0
  3  4  1  0  0  0
  4  5  2  0  0  0
  4  6  1  0  0  0
  6  7  1  0  0  0
  7  8  1  0  0  0
  8 31  1  0  0  0
 31 32  1  0  0  0
 32 33  2  0  0  0
 32 34  1  0  0  0
 34 35  1  0  0  0
  8  9  1  0  0  0
  9 10  2  0  0  0
  9 11  1  0  0  0
 11 12  2  0  0  0
 12 13  1  0  0  0
 13 14  2  0  0  0
 14 15  1  0  0  0
 14 16  1  0  0  0
 16 17  2  0  0  0
  6  1  1  0  0  0
 17 11  1  0  0  0
 27 18  1  0  0  0
 17  6  1  0  0  0
 27 22  1  0  0  0
 34 36  1  0  0  0
M  END
> <minimizedAffinity>
-7.54141

> <CNNscore>
0.2495495677

> <CNNaffinity>
5.8751230240

> <CNN_VS>
1.4661344290

> <CNNaffinity_variance>
0.1315889508

$$$$



 36 40  0  0  0  0  0  0  0  0999 V2000
   -6.1758    2.0947  -24.2460 C   0  0  0  0  0  0  0  0  0  0  0  0
   -7.4760    1.5218  -24.7270 C   0  0  0  0  0  0  0  0  0  0  0  0
   -8.0688    0.7156  -23.6095 N   0  0  0  0  0  0  0  0  0  0  0  0
   -7.1350    0.7903  -22.4380 C   0  0  0  0  0  0  0  0  0  0  0  0
   -7.3358    0.1287  -21.1069 O   0  0  0  0  0  0  0  0  0  0  0  0
   -5.9650    1.6426  -22.8314 C   0  0  0  0  0  0  0  0  0  0  0  0
   -5.8912    1.1147  -21.4294 C   0  0  0  0  0  0  0  0  0  0  0  0
   -4.7167    1.4552  -20.5606 N   0  0  0  0  0  0  0  0  0  0  0  0
   -3.6161    2.3236  -21.0940 C   0  0  0  0  0  0  0  0  0  0  0  0
   -2.4416    2.6641  -20.2252 O   0  0  0  0  0  0  0  0  0  0  0  0
   -3.6899    2.8516  -22.4961 C   0  0  0  0  0  0  0  0  0  0  0  0
   -2.5893    3.7200  -23.0294 C   0  0  0  0  0  0  0  0  0  0  0  0
   -2.6632    4.2480  -24.4314 C   0  0  0  0  0  0  0  0  0  0  0  0
   -3.8377    3.9075  -25.3001 C   0  0  0  0  0  0  0  0  0  0  0  0
   -3.9116    4.4355  -26.7023 Cl  0  0  0  0  0  0  0  0  0  0  0  0
   -4.9383    3.0391  -24.7668 C   0  0  0  0  0  0  0  0  0  0  0  0
   -4.8644    2.5111  -23.3648 C   0  0  0  0  0  0  0  0  0  0  0  0
   -9.3674   -0.0338  -23.6555 C   0  0  0  0  0  0  0  0  0  0  0  0
   -9.3665   -1.5314  -23.7391 C   0  0  0  0  0  0  0  0  0  0  0  0
  -10.6651   -2.2807  -23.7850 N   0  0  0  0  0  0  0  0  0  0  0  0
  -11.9646   -1.5324  -23.7475 C   0  0  0  0  0  0  0  0  0  0  0  0
  -11.9654   -0.0347  -23.6639 C   0  0  0  0  0  0  0  0  0  0  0  0
  -13.2649    0.7136  -23.6264 C   0  0  0  0  0  0  0  0  0  0  0  0
  -13.2657    2.2113  -23.5428 C   0  0  0  0  0  0  0  0  0  0  0  0
  -11.9671    2.9606  -23.4969 C   0  0  0  0  0  0  0  0  0  0  0  0
  -10.6677    2.2122  -23.5344 C   0  0  0  0  0  0  0  0  0  0  0  0
  -10.6668    0.7146  -23.6180 C   0  0  0  0  0  0  0  0  0  0  0  0
   -5.2491    2.9667  -25.0403 O   0  0  0  0  0  0  0  0  0  0  0  0
   -7.0785    4.7909  -25.3157 C   0  0  0  0  0  0  0  0  0  0  0  0
   -5.7815    4.1758  -25.7507 C   0  0  0  0  0  0  0  0  0  0  0  0
   -4.6428    0.9272  -19.1585 C   0  0  0  0  0  0  0  0  0  0  0  0
   -5.0739   -0.4788  -18.8629 C   0  0  0  0  0  0  0  0  0  0  0  0
   -5.5953   -0.8329  -17.5017 O   0  0  0  0  0  0  0  0  0  0  0  0
   -4.9836   -1.5306  -19.9284 N   0  0  0  0  0  0  0  0  0  0  0  0
   -5.4147   -2.9367  -19.6328 C   0  0  0  0  0  0  0  0  0  0  0  0
   -4.6413   -1.2982  -20.8218 H   0  0  0  0  0  0  0  0  0  0  0  0
 29 30  1  0  0  0
 30 28  1  0  0  0
  1 28  1  0  0  0
  1  2  1  0  0  0
  2  3  1  0  0  0
  3 18  1  0  0  0
 18 19  2  0  0  0
 19 20  1  0  0  0
 20 21  2  0  0  0
 21 22  1  0  0  0
 22 23  2  0  0  0
 23 24  1  0  0  0
 24 25  2  0  0  0
 25 26  1  0  0  0
 26 27  2  0  0  0
  3  4  1  0  0  0
  4  5  2  0  0  0
  4  6  1  0  0  0
  6  7  1  0  0  0
  7  8  1  0  0  0
  8 31  1  0  0  0
 31 32  1  0  0  0
 32 33  2  0  0  0
 32 34  1  0  0  0
 34 35  1  0  0  0
  8  9  1  0  0  0
  9 10  2  0  0  0
  9 11  1  0  0  0
 11 12  2  0  0  0
 12 13  1  0  0  0
 13 14  2  0  0  0
 14 15  1  0  0  0
 14 16  1  0  0  0
 16 17  2  0  0  0
  6  1  1  0  0  0
 17 11  1  0  0  0
 27 18  1  0  0  0
 17  6  1  0  0  0
 27 22  1  0  0  0
 34 36  1  0  0  0
M  END
> <minimizedAffinity>
-7.14718

> <CNNscore>
0.2124335319

> <CNNaffinity>
5.7266073227

> <CNN_VS>
1.2165234089

> <CNNaffinity_variance>
0.1550853103

$$$$
