


 41 46  0  0  0  0  0  0  0  0999 V2000
   10.3139    0.7603   23.5610 N   0  0  0  0  0  0  0  0  0  0  0  0
    8.9199    0.2875   23.8495 C   0  0  0  0  0  0  0  0  0  0  0  0
    8.7020   -0.9438   24.6779 C   0  0  0  0  0  0  0  0  0  0  0  0
    8.3302   -2.1512   25.4866 C   0  0  0  0  0  0  0  0  0  0  0  0
    8.8560   -3.0529   26.1086 O   0  0  0  0  0  0  0  0  0  0  0  0
    6.8335   -2.2459   25.5170 N   0  0  0  0  0  0  0  0  0  0  0  0
    6.2803   -1.0970   24.7270 C   0  0  0  0  0  0  0  0  0  0  0  0
    7.4351   -0.2923   24.2085 C   0  0  0  0  0  0  0  0  0  0  0  0
    9.8781   -1.7024   25.2178 C   0  0  0  0  0  0  0  0  0  0  0  0
    9.6603   -2.9338   26.0461 C   0  0  0  0  0  0  0  0  0  0  0  0
   10.8363   -3.6923   26.5859 C   0  0  0  0  0  0  0  0  0  0  0  0
   10.6185   -4.9237   27.4144 Cl  0  0  0  0  0  0  0  0  0  0  0  0
   12.2303   -3.2195   26.2974 C   0  0  0  0  0  0  0  0  0  0  0  0
   12.4482   -1.9881   25.4690 C   0  0  0  0  0  0  0  0  0  0  0  0
   11.2721   -1.2296   24.9292 C   0  0  0  0  0  0  0  0  0  0  0  0
   11.4900    0.0018   24.1008 C   0  0  0  0  0  0  0  0  0  0  0  0
   12.8839    0.4747   23.8122 O   0  0  0  0  0  0  0  0  0  0  0  0
    6.0310   -3.3038   26.2147 C   0  0  0  0  0  0  0  0  0  0  0  0
    5.6508   -4.5590   25.4869 C   0  0  0  0  0  0  0  0  0  0  0  0
    4.8483   -5.6169   26.1846 N   0  0  0  0  0  0  0  0  0  0  0  0
    4.4259   -5.4194   27.6103 C   0  0  0  0  0  0  0  0  0  0  0  0
    4.8060   -4.1642   28.3382 C   0  0  0  0  0  0  0  0  0  0  0  0
    4.3836   -3.9667   29.7640 C   0  0  0  0  0  0  0  0  0  0  0  0
    4.7638   -2.7114   30.4918 C   0  0  0  0  0  0  0  0  0  0  0  0
    5.5663   -1.6536   29.7940 C   0  0  0  0  0  0  0  0  0  0  0  0
    5.9887   -1.8510   28.3683 C   0  0  0  0  0  0  0  0  0  0  0  0
    5.6086   -3.1063   27.6404 C   0  0  0  0  0  0  0  0  0  0  0  0
   10.5317    1.9918   22.7325 C   0  0  0  0  0  0  0  0  0  0  0  0
   11.8056    2.7719   22.8692 C   0  0  0  0  0  0  0  0  0  0  0  0
   11.5657    5.3219   22.4332 C   0  0  0  0  0  0  0  0  0  0  0  0
   11.7710    4.1802   23.3843 N   0  0  0  0  0  0  0  0  0  0  0  0
   11.8870    4.3616   24.3813 H   0  0  0  0  0  0  0  0  0  0  0  0
   11.9105    3.4039   24.0310 H   0  0  0  0  0  0  0  0  0  0  0  0
    7.3396    0.9464   23.3680 C   0  0  0  0  0  0  0  0  0  0  0  0
    6.0417    1.3072   22.7085 O   0  0  0  0  0  0  0  0  0  0  0  0
    5.9064    1.2136   21.2176 C   0  0  0  0  0  0  0  0  0  0  0  0
    4.8080    1.9561   20.5161 C   0  0  0  0  0  0  0  0  0  0  0  0
    5.1734    3.2037   21.2645 F   0  0  0  0  0  0  0  0  0  0  0  0
    4.4426    0.7086   19.7676 C   0  0  0  0  0  0  0  0  0  0  0  0
    3.3443    1.4512   19.0661 O   0  0  0  0  0  0  0  0  0  0  0  0
    3.7096    2.6987   19.8145 C   0  0  0  0  0  0  0  0  0  0  0  0
 30 31  1  0  0  0
 31 29  1  0  0  0
 29 28  1  0  0  0
 28  1  1  0  0  0
  1  2  1  0  0  0
  3  2  1  0  0  0
  3  4  1  0  0  0
  4  5  2  0  0  0
  4  6  1  0  0  0
  6 18  1  0  0  0
 18 19  2  0  0  0
 19 20  1  0  0  0
 20 21  2  0  0  0
 21 22  1  0  0  0
 22 23  2  0  0  0
 23 24  1  0  0  0
 24 25  2  0  0  0
 25 26  1  0  0  0
 26 27  2  0  0  0
  6  7  1  0  0  0
  7  8  1  0  0  0
  8 34  1  0  0  0
 34 35  1  0  0  0
 35 36  1  0  0  0
 36 37  1  0  0  0
 37 38  1  0  0  0
 37 39  1  0  0  0
 39 40  1  0  0  0
 40 41  1  0  0  0
  3  9  1  0  0  0
  9 10  2  0  0  0
 10 11  1  0  0  0
 11 12  1  0  0  0
 11 13  2  0  0  0
 13 14  1  0  0  0
 14 15  2  0  0  0
 15 16  1  0  0  0
 16 17  2  0  0  0
 16  1  1  0  0  0
  8  3  1  0  0  0
 41 37  1  0  0  0
 15  9  1  0  0  0
 27 18  1  0  0  0
 27 22  1  0  0  0
 31 32  1  0  0  0
 31 33  1  0  0  0
M  CHG 1  31   1
M  END
> <minimizedAffinity>
-7.76635

> <CNNscore>
0.3466865420

> <CNNaffinity>
6.6476259232

> <CNN_VS>
2.3046424389

> <CNNaffinity_variance>
0.1256366521

$$$$



 41 46  0  0  0  0  0  0  0  0999 V2000
   10.5045    0.8619   23.1752 N   0  0  0  0  0  0  0  0  0  0  0  0
    9.1151    0.3453   23.4047 C   0  0  0  0  0  0  0  0  0  0  0  0
    8.8995   -0.8805   24.2418 C   0  0  0  0  0  0  0  0  0  0  0  0
    8.5304   -2.0881   25.0514 C   0  0  0  0  0  0  0  0  0  0  0  0
    9.0559   -2.9617   25.7124 O   0  0  0  0  0  0  0  0  0  0  0  0
    7.0380   -2.2342   25.0120 N   0  0  0  0  0  0  0  0  0  0  0  0
    6.4848   -1.1169   24.1780 C   0  0  0  0  0  0  0  0  0  0  0  0
    7.6353   -0.2803   23.7019 C   0  0  0  0  0  0  0  0  0  0  0  0
   10.0733   -1.5899   24.8493 C   0  0  0  0  0  0  0  0  0  0  0  0
    9.8577   -2.8157   25.6864 C   0  0  0  0  0  0  0  0  0  0  0  0
   11.0315   -3.5250   26.2939 C   0  0  0  0  0  0  0  0  0  0  0  0
   10.8159   -4.7509   27.1311 Cl  0  0  0  0  0  0  0  0  0  0  0  0
   12.4209   -3.0084   26.0644 C   0  0  0  0  0  0  0  0  0  0  0  0
   12.6365   -1.7825   25.2273 C   0  0  0  0  0  0  0  0  0  0  0  0
   11.4627   -1.0733   24.6198 C   0  0  0  0  0  0  0  0  0  0  0  0
   11.6783    0.1527   23.7827 C   0  0  0  0  0  0  0  0  0  0  0  0
   13.0677    0.6693   23.5532 O   0  0  0  0  0  0  0  0  0  0  0  0
    6.2392   -3.3088   25.6880 C   0  0  0  0  0  0  0  0  0  0  0  0
    5.9303   -4.5837   24.9604 C   0  0  0  0  0  0  0  0  0  0  0  0
    5.1315   -5.6584   25.6364 N   0  0  0  0  0  0  0  0  0  0  0  0
    4.6415   -5.4582   27.0399 C   0  0  0  0  0  0  0  0  0  0  0  0
    4.9503   -4.1833   27.7674 C   0  0  0  0  0  0  0  0  0  0  0  0
    4.4603   -3.9831   29.1710 C   0  0  0  0  0  0  0  0  0  0  0  0
    4.7692   -2.7081   29.8984 C   0  0  0  0  0  0  0  0  0  0  0  0
    5.5680   -1.6335   29.2224 C   0  0  0  0  0  0  0  0  0  0  0  0
    6.0580   -1.8337   27.8190 C   0  0  0  0  0  0  0  0  0  0  0  0
    5.7492   -3.1086   27.0914 C   0  0  0  0  0  0  0  0  0  0  0  0
   10.7201    2.0879   22.3380 C   0  0  0  0  0  0  0  0  0  0  0  0
   11.0646    3.3924   22.9934 C   0  0  0  0  0  0  0  0  0  0  0  0
   10.5323    5.9353   23.0106 C   0  0  0  0  0  0  0  0  0  0  0  0
   10.0645    4.5102   23.0107 N   0  0  0  0  0  0  0  0  0  0  0  0
    9.0662    4.3011   23.0227 H   0  0  0  0  0  0  0  0  0  0  0  0
    9.7463    3.5411   23.0109 H   0  0  0  0  0  0  0  0  0  0  0  0
    7.5384    0.9419   22.8378 C   0  0  0  0  0  0  0  0  0  0  0  0
    6.2327    1.3043   22.1947 O   0  0  0  0  0  0  0  0  0  0  0  0
    5.3713    2.3744   22.7972 C   0  0  0  0  0  0  0  0  0  0  0  0
    5.2962    3.7274   22.1541 C   0  0  0  0  0  0  0  0  0  0  0  0
    6.1958    3.2532   21.0514 F   0  0  0  0  0  0  0  0  0  0  0  0
    4.3967    4.2016   23.2568 C   0  0  0  0  0  0  0  0  0  0  0  0
    4.3216    5.5547   22.6137 O   0  0  0  0  0  0  0  0  0  0  0  0
    5.2212    5.0805   21.5110 C   0  0  0  0  0  0  0  0  0  0  0  0
 30 31  1  0  0  0
 31 29  1  0  0  0
 29 28  1  0  0  0
 28  1  1  0  0  0
  1  2  1  0  0  0
  3  2  1  0  0  0
  3  4  1  0  0  0
  4  5  2  0  0  0
  4  6  1  0  0  0
  6 18  1  0  0  0
 18 19  2  0  0  0
 19 20  1  0  0  0
 20 21  2  0  0  0
 21 22  1  0  0  0
 22 23  2  0  0  0
 23 24  1  0  0  0
 24 25  2  0  0  0
 25 26  1  0  0  0
 26 27  2  0  0  0
  6  7  1  0  0  0
  7  8  1  0  0  0
  8 34  1  0  0  0
 34 35  1  0  0  0
 35 36  1  0  0  0
 36 37  1  0  0  0
 37 38  1  0  0  0
 37 39  1  0  0  0
 39 40  1  0  0  0
 40 41  1  0  0  0
  3  9  1  0  0  0
  9 10  2  0  0  0
 10 11  1  0  0  0
 11 12  1  0  0  0
 11 13  2  0  0  0
 13 14  1  0  0  0
 14 15  2  0  0  0
 15 16  1  0  0  0
 16 17  2  0  0  0
 16  1  1  0  0  0
  8  3  1  0  0  0
 41 37  1  0  0  0
 15  9  1  0  0  0
 27 18  1  0  0  0
 27 22  1  0  0  0
 31 32  1  0  0  0
 31 33  1  0  0  0
M  CHG 1  31   1
M  END
> <minimizedAffinity>
-7.00286

> <CNNscore>
0.3424498737

> <CNNaffinity>
6.7071104050

> <CNN_VS>
2.2968490124

> <CNNaffinity_variance>
0.2283341438

$$$$



 41 46  0  0  0  0  0  0  0  0999 V2000
    5.3936    3.1452   23.1525 N   0  0  0  0  0  0  0  0  0  0  0  0
    6.4923    2.1281   23.0616 C   0  0  0  0  0  0  0  0  0  0  0  0
    6.7561    1.2040   24.2132 C   0  0  0  0  0  0  0  0  0  0  0  0
    7.1351    0.2179   25.2781 C   0  0  0  0  0  0  0  0  0  0  0  0
    6.8066   -0.1124   26.4003 O   0  0  0  0  0  0  0  0  0  0  0  0
    8.2820   -0.6011   24.7644 N   0  0  0  0  0  0  0  0  0  0  0  0
    8.6118   -0.1213   23.3821 C   0  0  0  0  0  0  0  0  0  0  0  0
    7.6687    0.9943   23.0414 C   0  0  0  0  0  0  0  0  0  0  0  0
    5.9211    1.2969   25.4559 C   0  0  0  0  0  0  0  0  0  0  0  0
    6.1849    0.3728   26.6076 C   0  0  0  0  0  0  0  0  0  0  0  0
    5.3499    0.4658   27.8502 C   0  0  0  0  0  0  0  0  0  0  0  0
    5.6137   -0.4584   29.0019 Cl  0  0  0  0  0  0  0  0  0  0  0  0
    4.2512    1.4829   27.9412 C   0  0  0  0  0  0  0  0  0  0  0  0
    3.9874    2.4070   26.7895 C   0  0  0  0  0  0  0  0  0  0  0  0
    4.8224    2.3140   25.5469 C   0  0  0  0  0  0  0  0  0  0  0  0
    4.5586    3.2382   24.3951 C   0  0  0  0  0  0  0  0  0  0  0  0
    3.4599    4.2553   24.4861 O   0  0  0  0  0  0  0  0  0  0  0  0
    8.9771   -1.7061   25.5034 C   0  0  0  0  0  0  0  0  0  0  0  0
    8.1738   -2.7414   26.2334 C   0  0  0  0  0  0  0  0  0  0  0  0
    8.8688   -3.8463   26.9723 N   0  0  0  0  0  0  0  0  0  0  0  0
   10.3671   -3.9159   26.9814 C   0  0  0  0  0  0  0  0  0  0  0  0
   11.1704   -2.8805   26.2514 C   0  0  0  0  0  0  0  0  0  0  0  0
   12.6689   -2.9501   26.2605 C   0  0  0  0  0  0  0  0  0  0  0  0
   13.4721   -1.9147   25.5305 C   0  0  0  0  0  0  0  0  0  0  0  0
   12.7770   -0.8098   24.7916 C   0  0  0  0  0  0  0  0  0  0  0  0
   11.2787   -0.7403   24.7825 C   0  0  0  0  0  0  0  0  0  0  0  0
   10.4754   -1.7756   25.5125 C   0  0  0  0  0  0  0  0  0  0  0  0
    5.1298    4.0694   22.0008 C   0  0  0  0  0  0  0  0  0  0  0  0
    4.5960    5.4483   22.2527 C   0  0  0  0  0  0  0  0  0  0  0  0
    6.3399    6.7817   20.8632 C   0  0  0  0  0  0  0  0  0  0  0  0
    4.9230    6.5639   21.3049 N   0  0  0  0  0  0  0  0  0  0  0  0
    4.1819    7.1745   20.9607 H   0  0  0  0  0  0  0  0  0  0  0  0
    3.9596    6.4158   21.6052 H   0  0  0  0  0  0  0  0  0  0  0  0
    7.6429    1.7650   21.7548 C   0  0  0  0  0  0  0  0  0  0  0  0
    7.6956    1.0381   20.4439 O   0  0  0  0  0  0  0  0  0  0  0  0
    6.5507    0.1647   20.0239 C   0  0  0  0  0  0  0  0  0  0  0  0
    5.7569    0.5066   18.7980 C   0  0  0  0  0  0  0  0  0  0  0  0
    6.8661   -0.0161   17.9340 F   0  0  0  0  0  0  0  0  0  0  0  0
    4.6476    1.0292   19.6619 C   0  0  0  0  0  0  0  0  0  0  0  0
    3.8539    1.3711   18.4359 O   0  0  0  0  0  0  0  0  0  0  0  0
    4.9631    0.8484   17.5720 C   0  0  0  0  0  0  0  0  0  0  0  0
 30 31  1  0  0  0
 31 29  1  0  0  0
 29 28  1  0  0  0
 28  1  1  0  0  0
  1  2  1  0  0  0
  3  2  1  0  0  0
  3  4  1  0  0  0
  4  5  2  0  0  0
  4  6  1  0  0  0
  6 18  1  0  0  0
 18 19  2  0  0  0
 19 20  1  0  0  0
 20 21  2  0  0  0
 21 22  1  0  0  0
 22 23  2  0  0  0
 23 24  1  0  0  0
 24 25  2  0  0  0
 25 26  1  0  0  0
 26 27  2  0  0  0
  6  7  1  0  0  0
  7  8  1  0  0  0
  8 34  1  0  0  0
 34 35  1  0  0  0
 35 36  1  0  0  0
 36 37  1  0  0  0
 37 38  1  0  0  0
 37 39  1  0  0  0
 39 40  1  0  0  0
 40 41  1  0  0  0
  3  9  1  0  0  0
  9 10  2  0  0  0
 10 11  1  0  0  0
 11 12  1  0  0  0
 11 13  2  0  0  0
 13 14  1  0  0  0
 14 15  2  0  0  0
 15 16  1  0  0  0
 16 17  2  0  0  0
 16  1  1  0  0  0
  8  3  1  0  0  0
 41 37  1  0  0  0
 15  9  1  0  0  0
 27 18  1  0  0  0
 27 22  1  0  0  0
 31 32  1  0  0  0
 31 33  1  0  0  0
M  CHG 1  31   1
M  END
> <minimizedAffinity>
-7.31752

> <CNNscore>
0.3194133937

> <CNNaffinity>
6.3886828423

> <CNN_VS>
2.0406308174

> <CNNaffinity_variance>
0.0870300978

$$$$



 41 46  0  0  0  0  0  0  0  0999 V2000
   10.8759    1.6562   22.7086 N   0  0  0  0  0  0  0  0  0  0  0  0
    9.4838    1.1925   23.0205 C   0  0  0  0  0  0  0  0  0  0  0  0
    9.2716   -0.0579   23.8212 C   0  0  0  0  0  0  0  0  0  0  0  0
    8.9052   -1.2821   24.6069 C   0  0  0  0  0  0  0  0  0  0  0  0
    9.4352   -2.2064   25.1909 O   0  0  0  0  0  0  0  0  0  0  0  0
    7.4087   -1.3595   24.6735 N   0  0  0  0  0  0  0  0  0  0  0  0
    6.8501   -0.1832   23.9290 C   0  0  0  0  0  0  0  0  0  0  0  0
    8.0014    0.6212   23.4023 C   0  0  0  0  0  0  0  0  0  0  0  0
   10.4514   -0.8449   24.3100 C   0  0  0  0  0  0  0  0  0  0  0  0
   10.2391   -2.0954   25.1108 C   0  0  0  0  0  0  0  0  0  0  0  0
   11.4189   -2.8823   25.5995 C   0  0  0  0  0  0  0  0  0  0  0  0
   11.2066   -4.1328   26.4003 Cl  0  0  0  0  0  0  0  0  0  0  0  0
   12.8109   -2.4186   25.2876 C   0  0  0  0  0  0  0  0  0  0  0  0
   13.0232   -1.1681   24.4869 C   0  0  0  0  0  0  0  0  0  0  0  0
   11.8434   -0.3813   23.9981 C   0  0  0  0  0  0  0  0  0  0  0  0
   12.0556    0.8693   23.1973 C   0  0  0  0  0  0  0  0  0  0  0  0
   13.4477    1.3329   22.8854 O   0  0  0  0  0  0  0  0  0  0  0  0
    6.6109   -2.4260   25.3635 C   0  0  0  0  0  0  0  0  0  0  0  0
    6.0557   -2.1784   26.7348 C   0  0  0  0  0  0  0  0  0  0  0  0
    5.2579   -3.2449   27.4248 N   0  0  0  0  0  0  0  0  0  0  0  0
    5.0153   -4.5590   26.7435 C   0  0  0  0  0  0  0  0  0  0  0  0
    5.5705   -4.8066   25.3722 C   0  0  0  0  0  0  0  0  0  0  0  0
    5.3278   -6.1208   24.6908 C   0  0  0  0  0  0  0  0  0  0  0  0
    5.8830   -6.3683   23.3195 C   0  0  0  0  0  0  0  0  0  0  0  0
    6.6808   -5.3018   22.6295 C   0  0  0  0  0  0  0  0  0  0  0  0
    6.9234   -3.9877   23.3108 C   0  0  0  0  0  0  0  0  0  0  0  0
    6.3683   -3.7401   24.6822 C   0  0  0  0  0  0  0  0  0  0  0  0
   11.0881    2.9067   21.9078 C   0  0  0  0  0  0  0  0  0  0  0  0
   12.0320    3.9626   22.4020 C   0  0  0  0  0  0  0  0  0  0  0  0
   10.4611    5.9395   23.0138 C   0  0  0  0  0  0  0  0  0  0  0  0
   11.5593    4.9889   23.3886 N   0  0  0  0  0  0  0  0  0  0  0  0
   11.9846    5.0403   24.3142 H   0  0  0  0  0  0  0  0  0  0  0  0
   12.3060    4.3425   23.6434 H   0  0  0  0  0  0  0  0  0  0  0  0
    7.9003    1.8832   22.5979 C   0  0  0  0  0  0  0  0  0  0  0  0
    7.4953    1.8224   21.1549 O   0  0  0  0  0  0  0  0  0  0  0  0
    6.8281    0.5926   20.6142 C   0  0  0  0  0  0  0  0  0  0  0  0
    5.8517    0.7057   19.4812 C   0  0  0  0  0  0  0  0  0  0  0  0
    5.1602    1.8326   20.1895 F   0  0  0  0  0  0  0  0  0  0  0  0
    6.5432   -0.4213   18.7728 C   0  0  0  0  0  0  0  0  0  0  0  0
    5.5668   -0.3082   17.6398 O   0  0  0  0  0  0  0  0  0  0  0  0
    4.8753    0.8187   18.3481 C   0  0  0  0  0  0  0  0  0  0  0  0
 30 31  1  0  0  0
 31 29  1  0  0  0
 29 28  1  0  0  0
 28  1  1  0  0  0
  1  2  1  0  0  0
  3  2  1  0  0  0
  3  4  1  0  0  0
  4  5  2  0  0  0
  4  6  1  0  0  0
  6 18  1  0  0  0
 18 19  2  0  0  0
 19 20  1  0  0  0
 20 21  2  0  0  0
 21 22  1  0  0  0
 22 23  2  0  0  0
 23 24  1  0  0  0
 24 25  2  0  0  0
 25 26  1  0  0  0
 26 27  2  0  0  0
  6  7  1  0  0  0
  7  8  1  0  0  0
  8 34  1  0  0  0
 34 35  1  0  0  0
 35 36  1  0  0  0
 36 37  1  0  0  0
 37 38  1  0  0  0
 37 39  1  0  0  0
 39 40  1  0  0  0
 40 41  1  0  0  0
  3  9  1  0  0  0
  9 10  2  0  0  0
 10 11  1  0  0  0
 11 12  1  0  0  0
 11 13  2  0  0  0
 13 14  1  0  0  0
 14 15  2  0  0  0
 15 16  1  0  0  0
 16 17  2  0  0  0
 16  1  1  0  0  0
  8  3  1  0  0  0
 41 37  1  0  0  0
 15  9  1  0  0  0
 27 18  1  0  0  0
 27 22  1  0  0  0
 31 32  1  0  0  0
 31 33  1  0  0  0
M  CHG 1  31   1
M  END
> <minimizedAffinity>
-8.69066

> <CNNscore>
0.2940402627

> <CNNaffinity>
6.8774390221

> <CNN_VS>
2.0222439766

> <CNNaffinity_variance>
0.2006346732

$$$$



 41 46  0  0  0  0  0  0  0  0999 V2000
   10.5378    0.9011   23.3800 N   0  0  0  0  0  0  0  0  0  0  0  0
    9.1553    0.5785   23.8644 C   0  0  0  0  0  0  0  0  0  0  0  0
    8.9332   -0.5951   24.7717 C   0  0  0  0  0  0  0  0  0  0  0  0
    8.5589   -1.7305   25.6776 C   0  0  0  0  0  0  0  0  0  0  0  0
    9.0748   -2.6570   26.2709 O   0  0  0  0  0  0  0  0  0  0  0  0
    7.0766   -1.6760   25.9010 N   0  0  0  0  0  0  0  0  0  0  0  0
    6.5348   -0.5070   25.1330 C   0  0  0  0  0  0  0  0  0  0  0  0
    7.6823    0.1610   24.4351 C   0  0  0  0  0  0  0  0  0  0  0  0
   10.0938   -1.4463   25.1946 C   0  0  0  0  0  0  0  0  0  0  0  0
    9.8717   -2.6200   26.1018 C   0  0  0  0  0  0  0  0  0  0  0  0
   11.0322   -3.4711   26.5247 C   0  0  0  0  0  0  0  0  0  0  0  0
   10.8102   -4.6449   27.4320 Cl  0  0  0  0  0  0  0  0  0  0  0  0
   12.4147   -3.1486   26.0403 C   0  0  0  0  0  0  0  0  0  0  0  0
   12.6367   -1.9749   25.1331 C   0  0  0  0  0  0  0  0  0  0  0  0
   11.4763   -1.1238   24.7102 C   0  0  0  0  0  0  0  0  0  0  0  0
   11.6983    0.0500   23.8029 C   0  0  0  0  0  0  0  0  0  0  0  0
   13.0808    0.3725   23.3186 O   0  0  0  0  0  0  0  0  0  0  0  0
    6.2767   -2.6242   26.7443 C   0  0  0  0  0  0  0  0  0  0  0  0
    6.1201   -2.3711   28.2145 C   0  0  0  0  0  0  0  0  0  0  0  0
    5.3201   -3.3192   29.0577 N   0  0  0  0  0  0  0  0  0  0  0  0
    4.6767   -4.5204   28.4308 C   0  0  0  0  0  0  0  0  0  0  0  0
    4.8333   -4.7735   26.9606 C   0  0  0  0  0  0  0  0  0  0  0  0
    4.1898   -5.9748   26.3337 C   0  0  0  0  0  0  0  0  0  0  0  0
    4.3464   -6.2278   24.8635 C   0  0  0  0  0  0  0  0  0  0  0  0
    5.1464   -5.2797   24.0202 C   0  0  0  0  0  0  0  0  0  0  0  0
    5.7898   -4.0785   24.6471 C   0  0  0  0  0  0  0  0  0  0  0  0
    5.6332   -3.8254   26.1173 C   0  0  0  0  0  0  0  0  0  0  0  0
   10.7598    2.0748   22.4727 C   0  0  0  0  0  0  0  0  0  0  0  0
   11.1623    3.4009   23.0468 C   0  0  0  0  0  0  0  0  0  0  0  0
   10.7799    5.9687   22.9461 C   0  0  0  0  0  0  0  0  0  0  0  0
   10.2308    4.5728   22.9526 N   0  0  0  0  0  0  0  0  0  0  0  0
    9.2240    4.4205   22.8931 H   0  0  0  0  0  0  0  0  0  0  0  0
    9.8575    3.6236   22.9571 H   0  0  0  0  0  0  0  0  0  0  0  0
    7.5942    1.3725   23.5550 C   0  0  0  0  0  0  0  0  0  0  0  0
    6.5069    2.3820   23.7752 O   0  0  0  0  0  0  0  0  0  0  0  0
    6.7681    3.8354   23.5114 C   0  0  0  0  0  0  0  0  0  0  0  0
    6.8997    4.7938   24.6578 C   0  0  0  0  0  0  0  0  0  0  0  0
    7.3296    5.8716   23.7072 F   0  0  0  0  0  0  0  0  0  0  0  0
    6.4698    3.7160   25.6083 C   0  0  0  0  0  0  0  0  0  0  0  0
    6.6015    4.6744   26.7546 O   0  0  0  0  0  0  0  0  0  0  0  0
    7.0313    5.7522   25.8041 C   0  0  0  0  0  0  0  0  0  0  0  0
 30 31  1  0  0  0
 31 29  1  0  0  0
 29 28  1  0  0  0
 28  1  1  0  0  0
  1  2  1  0  0  0
  3  2  1  0  0  0
  3  4  1  0  0  0
  4  5  2  0  0  0
  4  6  1  0  0  0
  6 18  1  0  0  0
 18 19  2  0  0  0
 19 20  1  0  0  0
 20 21  2  0  0  0
 21 22  1  0  0  0
 22 23  2  0  0  0
 23 24  1  0  0  0
 24 25  2  0  0  0
 25 26  1  0  0  0
 26 27  2  0  0  0
  6  7  1  0  0  0
  7  8  1  0  0  0
  8 34  1  0  0  0
 34 35  1  0  0  0
 35 36  1  0  0  0
 36 37  1  0  0  0
 37 38  1  0  0  0
 37 39  1  0  0  0
 39 40  1  0  0  0
 40 41  1  0  0  0
  3  9  1  0  0  0
  9 10  2  0  0  0
 10 11  1  0  0  0
 11 12  1  0  0  0
 11 13  2  0  0  0
 13 14  1  0  0  0
 14 15  2  0  0  0
 15 16  1  0  0  0
 16 17  2  0  0  0
 16  1  1  0  0  0
  8  3  1  0  0  0
 41 37  1  0  0  0
 15  9  1  0  0  0
 27 18  1  0  0  0
 27 22  1  0  0  0
 31 32  1  0  0  0
 31 33  1  0  0  0
M  CHG 1  31   1
M  END
> <minimizedAffinity>
-7.36503

> <CNNscore>
0.2772860825

> <CNNaffinity>
6.2416515350

> <CNN_VS>
1.7307231426

> <CNNaffinity_variance>
0.6850811243

$$$$



 41 46  0  0  0  0  0  0  0  0999 V2000
    9.8658    0.5441   22.7683 N   0  0  0  0  0  0  0  0  0  0  0  0
    8.7183   -0.4103   22.6191 C   0  0  0  0  0  0  0  0  0  0  0  0
    8.6938   -1.6835   23.4118 C   0  0  0  0  0  0  0  0  0  0  0  0
    8.5324   -2.9881   24.1343 C   0  0  0  0  0  0  0  0  0  0  0  0
    9.1098   -3.6769   24.9520 O   0  0  0  0  0  0  0  0  0  0  0  0
    7.2451   -3.6118   23.6830 N   0  0  0  0  0  0  0  0  0  0  0  0
    6.6108   -2.6927   22.6815 C   0  0  0  0  0  0  0  0  0  0  0  0
    7.5062   -1.5009   22.5139 C   0  0  0  0  0  0  0  0  0  0  0  0
    9.8169   -2.0023   24.3537 C   0  0  0  0  0  0  0  0  0  0  0  0
    9.7924   -3.2754   25.1464 C   0  0  0  0  0  0  0  0  0  0  0  0
   10.9155   -3.5942   26.0882 C   0  0  0  0  0  0  0  0  0  0  0  0
   10.8910   -4.8674   26.8810 Cl  0  0  0  0  0  0  0  0  0  0  0  0
   12.0630   -2.6398   26.2374 C   0  0  0  0  0  0  0  0  0  0  0  0
   12.0875   -1.3666   25.4447 C   0  0  0  0  0  0  0  0  0  0  0  0
   10.9644   -1.0478   24.5029 C   0  0  0  0  0  0  0  0  0  0  0  0
   10.9889    0.2254   23.7101 C   0  0  0  0  0  0  0  0  0  0  0  0
   12.1364    1.1798   23.8593 O   0  0  0  0  0  0  0  0  0  0  0  0
    6.6896   -4.9242   24.1509 C   0  0  0  0  0  0  0  0  0  0  0  0
    7.2585   -6.2092   23.6265 C   0  0  0  0  0  0  0  0  0  0  0  0
    6.7029   -7.5216   24.0945 N   0  0  0  0  0  0  0  0  0  0  0  0
    5.5785   -7.5489   25.0869 C   0  0  0  0  0  0  0  0  0  0  0  0
    5.0096   -6.2639   25.6113 C   0  0  0  0  0  0  0  0  0  0  0  0
    3.8851   -6.2912   26.6038 C   0  0  0  0  0  0  0  0  0  0  0  0
    3.3163   -5.0061   27.1281 C   0  0  0  0  0  0  0  0  0  0  0  0
    3.8718   -3.6937   26.6602 C   0  0  0  0  0  0  0  0  0  0  0  0
    4.9962   -3.6664   25.6678 C   0  0  0  0  0  0  0  0  0  0  0  0
    5.5651   -4.9515   25.1433 C   0  0  0  0  0  0  0  0  0  0  0  0
    9.8903    1.8173   21.9755 C   0  0  0  0  0  0  0  0  0  0  0  0
   10.3967    3.0821   22.6033 C   0  0  0  0  0  0  0  0  0  0  0  0
   11.7187    5.3112   22.4220 C   0  0  0  0  0  0  0  0  0  0  0  0
   11.2113    4.0471   21.7939 N   0  0  0  0  0  0  0  0  0  0  0  0
   11.4202    3.8437   20.8165 H   0  0  0  0  0  0  0  0  0  0  0  0
   10.8663    3.1875   21.3668 H   0  0  0  0  0  0  0  0  0  0  0  0
    7.2575   -0.3319   21.6076 C   0  0  0  0  0  0  0  0  0  0  0  0
    5.9207    0.3483   21.6103 O   0  0  0  0  0  0  0  0  0  0  0  0
    4.8545   -0.0893   20.6503 C   0  0  0  0  0  0  0  0  0  0  0  0
    4.8276    0.4636   19.2562 C   0  0  0  0  0  0  0  0  0  0  0  0
    4.1499    1.7030   19.7608 F   0  0  0  0  0  0  0  0  0  0  0  0
    5.5053   -0.7758   18.7516 C   0  0  0  0  0  0  0  0  0  0  0  0
    5.4785   -0.2229   17.3575 O   0  0  0  0  0  0  0  0  0  0  0  0
    4.8008    1.0165   17.8621 C   0  0  0  0  0  0  0  0  0  0  0  0
 30 31  1  0  0  0
 31 29  1  0  0  0
 29 28  1  0  0  0
 28  1  1  0  0  0
  1  2  1  0  0  0
  3  2  1  0  0  0
  3  4  1  0  0  0
  4  5  2  0  0  0
  4  6  1  0  0  0
  6 18  1  0  0  0
 18 19  2  0  0  0
 19 20  1  0  0  0
 20 21  2  0  0  0
 21 22  1  0  0  0
 22 23  2  0  0  0
 23 24  1  0  0  0
 24 25  2  0  0  0
 25 26  1  0  0  0
 26 27  2  0  0  0
  6  7  1  0  0  0
  7  8  1  0  0  0
  8 34  1  0  0  0
 34 35  1  0  0  0
 35 36  1  0  0  0
 36 37  1  0  0  0
 37 38  1  0  0  0
 37 39  1  0  0  0
 39 40  1  0  0  0
 40 41  1  0  0  0
  3  9  1  0  0  0
  9 10  2  0  0  0
 10 11  1  0  0  0
 11 12  1  0  0  0
 11 13  2  0  0  0
 13 14  1  0  0  0
 14 15  2  0  0  0
 15 16  1  0  0  0
 16 17  2  0  0  0
 16  1  1  0  0  0
  8  3  1  0  0  0
 41 37  1  0  0  0
 15  9  1  0  0  0
 27 18  1  0  0  0
 27 22  1  0  0  0
 31 32  1  0  0  0
 31 33  1  0  0  0
M  CHG 1  31   1
M  END
> <minimizedAffinity>
-8.87886

> <CNNscore>
0.2480396032

> <CNNaffinity>
6.6536407471

> <CNN_VS>
1.6503664255

> <CNNaffinity_variance>
0.2270785272

$$$$



 41 46  0  0  0  0  0  0  0  0999 V2000
   10.8127    1.0845   23.2086 N   0  0  0  0  0  0  0  0  0  0  0  0
    9.4318    0.9053   23.7663 C   0  0  0  0  0  0  0  0  0  0  0  0
    9.1418   -0.2322   24.6999 C   0  0  0  0  0  0  0  0  0  0  0  0
    8.7042   -1.3166   25.6394 C   0  0  0  0  0  0  0  0  0  0  0  0
    9.1558   -2.2843   26.2190 O   0  0  0  0  0  0  0  0  0  0  0  0
    7.2479   -1.1131   25.9362 N   0  0  0  0  0  0  0  0  0  0  0  0
    6.7855    0.0971   25.1800 C   0  0  0  0  0  0  0  0  0  0  0  0
    7.9560    0.6414   24.4160 C   0  0  0  0  0  0  0  0  0  0  0  0
   10.2327   -1.1907   25.0760 C   0  0  0  0  0  0  0  0  0  0  0  0
    9.9427   -2.3283   26.0096 C   0  0  0  0  0  0  0  0  0  0  0  0
   11.0336   -3.2867   26.3856 C   0  0  0  0  0  0  0  0  0  0  0  0
   10.7436   -4.4243   27.3193 Cl  0  0  0  0  0  0  0  0  0  0  0  0
   12.4145   -3.1075   25.8280 C   0  0  0  0  0  0  0  0  0  0  0  0
   12.7045   -1.9699   24.8943 C   0  0  0  0  0  0  0  0  0  0  0  0
   11.6136   -1.0115   24.5183 C   0  0  0  0  0  0  0  0  0  0  0  0
   11.9036    0.1262   23.5846 C   0  0  0  0  0  0  0  0  0  0  0  0
   13.2845    0.3054   23.0270 O   0  0  0  0  0  0  0  0  0  0  0  0
    6.4026   -1.9694   26.8318 C   0  0  0  0  0  0  0  0  0  0  0  0
    7.0459   -3.0080   27.7021 C   0  0  0  0  0  0  0  0  0  0  0  0
    6.2005   -3.8643   28.5977 N   0  0  0  0  0  0  0  0  0  0  0  0
    4.7118   -3.6819   28.6230 C   0  0  0  0  0  0  0  0  0  0  0  0
    4.0686   -2.6433   27.7527 C   0  0  0  0  0  0  0  0  0  0  0  0
    2.5798   -2.4609   27.7780 C   0  0  0  0  0  0  0  0  0  0  0  0
    1.9367   -1.4222   26.9076 C   0  0  0  0  0  0  0  0  0  0  0  0
    2.7820   -0.5660   26.0120 C   0  0  0  0  0  0  0  0  0  0  0  0
    4.2707   -0.7483   25.9867 C   0  0  0  0  0  0  0  0  0  0  0  0
    4.9139   -1.7870   26.8571 C   0  0  0  0  0  0  0  0  0  0  0  0
   11.1027    2.2222   22.2749 C   0  0  0  0  0  0  0  0  0  0  0  0
   11.9848    3.3511   22.7195 C   0  0  0  0  0  0  0  0  0  0  0  0
   11.1543    5.8111   22.6285 C   0  0  0  0  0  0  0  0  0  0  0  0
   11.3872    4.5464   23.4006 N   0  0  0  0  0  0  0  0  0  0  0  0
   11.1392    4.4992   24.3889 H   0  0  0  0  0  0  0  0  0  0  0  0
   11.5456    3.6864   23.9257 H   0  0  0  0  0  0  0  0  0  0  0  0
    7.9429    1.8477   23.5245 C   0  0  0  0  0  0  0  0  0  0  0  0
    6.9492    1.9423   22.4050 O   0  0  0  0  0  0  0  0  0  0  0  0
    6.3186    0.6975   21.8546 C   0  0  0  0  0  0  0  0  0  0  0  0
    5.9419    0.6258   20.4045 C   0  0  0  0  0  0  0  0  0  0  0  0
    6.0098    2.1214   20.3129 F   0  0  0  0  0  0  0  0  0  0  0  0
    5.8740   -0.8699   20.4962 C   0  0  0  0  0  0  0  0  0  0  0  0
    5.4973   -0.9416   19.0460 O   0  0  0  0  0  0  0  0  0  0  0  0
    5.5652    0.5540   18.9544 C   0  0  0  0  0  0  0  0  0  0  0  0
 30 31  1  0  0  0
 31 29  1  0  0  0
 29 28  1  0  0  0
 28  1  1  0  0  0
  1  2  1  0  0  0
  3  2  1  0  0  0
  3  4  1  0  0  0
  4  5  2  0  0  0
  4  6  1  0  0  0
  6 18  1  0  0  0
 18 19  2  0  0  0
 19 20  1  0  0  0
 20 21  2  0  0  0
 21 22  1  0  0  0
 22 23  2  0  0  0
 23 24  1  0  0  0
 24 25  2  0  0  0
 25 26  1  0  0  0
 26 27  2  0  0  0
  6  7  1  0  0  0
  7  8  1  0  0  0
  8 34  1  0  0  0
 34 35  1  0  0  0
 35 36  1  0  0  0
 36 37  1  0  0  0
 37 38  1  0  0  0
 37 39  1  0  0  0
 39 40  1  0  0  0
 40 41  1  0  0  0
  3  9  1  0  0  0
  9 10  2  0  0  0
 10 11  1  0  0  0
 11 12  1  0  0  0
 11 13  2  0  0  0
 13 14  1  0  0  0
 14 15  2  0  0  0
 15 16  1  0  0  0
 16 17  2  0  0  0
 16  1  1  0  0  0
  8  3  1  0  0  0
 41 37  1  0  0  0
 15  9  1  0  0  0
 27 18  1  0  0  0
 27 22  1  0  0  0
 31 32  1  0  0  0
 31 33  1  0  0  0
M  CHG 1  31   1
M  END
> <minimizedAffinity>
-7.24372

> <CNNscore>
0.2280652225

> <CNNaffinity>
6.5146255493

> <CNN_VS>
1.4857594967

> <CNNaffinity_variance>
0.1803897619

$$$$



 41 46  0  0  0  0  0  0  0  0999 V2000
    9.9798    0.4920   22.8599 N   0  0  0  0  0  0  0  0  0  0  0  0
    8.8136   -0.4381   22.7026 C   0  0  0  0  0  0  0  0  0  0  0  0
    8.7674   -1.7210   23.4784 C   0  0  0  0  0  0  0  0  0  0  0  0
    8.5835   -3.0318   24.1842 C   0  0  0  0  0  0  0  0  0  0  0  0
    9.1504   -3.7424   24.9903 O   0  0  0  0  0  0  0  0  0  0  0  0
    7.2827   -3.6245   23.7297 N   0  0  0  0  0  0  0  0  0  0  0  0
    6.6626   -2.6800   22.7430 C   0  0  0  0  0  0  0  0  0  0  0  0
    7.5802   -1.5036   22.5877 C   0  0  0  0  0  0  0  0  0  0  0  0
    9.8876   -2.0739   24.4116 C   0  0  0  0  0  0  0  0  0  0  0  0
    9.8414   -3.3569   25.1874 C   0  0  0  0  0  0  0  0  0  0  0  0
   10.9615   -3.7097   26.1205 C   0  0  0  0  0  0  0  0  0  0  0  0
   10.9154   -4.9927   26.8964 Cl  0  0  0  0  0  0  0  0  0  0  0  0
   12.1278   -2.7797   26.2778 C   0  0  0  0  0  0  0  0  0  0  0  0
   12.1740   -1.4967   25.5020 C   0  0  0  0  0  0  0  0  0  0  0  0
   11.0538   -1.1439   24.5689 C   0  0  0  0  0  0  0  0  0  0  0  0
   11.1000    0.1391   23.7931 C   0  0  0  0  0  0  0  0  0  0  0  0
   12.2663    1.0692   23.9504 O   0  0  0  0  0  0  0  0  0  0  0  0
    6.7036   -4.9320   24.1823 C   0  0  0  0  0  0  0  0  0  0  0  0
    7.2343   -6.2201   23.6261 C   0  0  0  0  0  0  0  0  0  0  0  0
    6.6553   -7.5276   24.0788 N   0  0  0  0  0  0  0  0  0  0  0  0
    5.5455   -7.5472   25.0877 C   0  0  0  0  0  0  0  0  0  0  0  0
    5.0148   -6.2592   25.6440 C   0  0  0  0  0  0  0  0  0  0  0  0
    3.9050   -6.2788   26.6530 C   0  0  0  0  0  0  0  0  0  0  0  0
    3.3743   -4.9907   27.2092 C   0  0  0  0  0  0  0  0  0  0  0  0
    3.9533   -3.6832   26.7565 C   0  0  0  0  0  0  0  0  0  0  0  0
    5.0631   -3.6636   25.7475 C   0  0  0  0  0  0  0  0  0  0  0  0
    5.5938   -4.9516   25.1913 C   0  0  0  0  0  0  0  0  0  0  0  0
   10.0260    1.7750   22.0841 C   0  0  0  0  0  0  0  0  0  0  0  0
    9.8708    3.0870   22.7944 C   0  0  0  0  0  0  0  0  0  0  0  0
   11.5558    5.0494   22.5496 C   0  0  0  0  0  0  0  0  0  0  0  0
   11.0833    3.8261   23.2778 N   0  0  0  0  0  0  0  0  0  0  0  0
   11.5864    3.4969   24.1017 H   0  0  0  0  0  0  0  0  0  0  0  0
   10.7619    2.9943   23.7730 H   0  0  0  0  0  0  0  0  0  0  0  0
    7.3509   -0.3180   21.6980 C   0  0  0  0  0  0  0  0  0  0  0  0
    6.0597   -0.1826   20.9467 O   0  0  0  0  0  0  0  0  0  0  0  0
    5.5538    1.1765   20.5636 C   0  0  0  0  0  0  0  0  0  0  0  0
    5.4087    2.2444   21.6069 C   0  0  0  0  0  0  0  0  0  0  0  0
    6.7550    2.7910   21.2346 F   0  0  0  0  0  0  0  0  0  0  0  0
    4.0624    1.6977   21.9792 C   0  0  0  0  0  0  0  0  0  0  0  0
    3.9173    2.7656   23.0226 O   0  0  0  0  0  0  0  0  0  0  0  0
    5.2637    3.3122   22.6503 C   0  0  0  0  0  0  0  0  0  0  0  0
 30 31  1  0  0  0
 31 29  1  0  0  0
 29 28  1  0  0  0
 28  1  1  0  0  0
  1  2  1  0  0  0
  3  2  1  0  0  0
  3  4  1  0  0  0
  4  5  2  0  0  0
  4  6  1  0  0  0
  6 18  1  0  0  0
 18 19  2  0  0  0
 19 20  1  0  0  0
 20 21  2  0  0  0
 21 22  1  0  0  0
 22 23  2  0  0  0
 23 24  1  0  0  0
 24 25  2  0  0  0
 25 26  1  0  0  0
 26 27  2  0  0  0
  6  7  1  0  0  0
  7  8  1  0  0  0
  8 34  1  0  0  0
 34 35  1  0  0  0
 35 36  1  0  0  0
 36 37  1  0  0  0
 37 38  1  0  0  0
 37 39  1  0  0  0
 39 40  1  0  0  0
 40 41  1  0  0  0
  3  9  1  0  0  0
  9 10  2  0  0  0
 10 11  1  0  0  0
 11 12  1  0  0  0
 11 13  2  0  0  0
 13 14  1  0  0  0
 14 15  2  0  0  0
 15 16  1  0  0  0
 16 17  2  0  0  0
 16  1  1  0  0  0
  8  3  1  0  0  0
 41 37  1  0  0  0
 15  9  1  0  0  0
 27 18  1  0  0  0
 27 22  1  0  0  0
 31 32  1  0  0  0
 31 33  1  0  0  0
M  CHG 1  31   1
M  END
> <minimizedAffinity>
-7.69530

> <CNNscore>
0.1894107461

> <CNNaffinity>
6.5194916725

> <CNN_VS>
1.2348617315

> <CNNaffinity_variance>
0.3936215341

$$$$



 41 46  0  0  0  0  0  0  0  0999 V2000
    5.0138    1.3939   21.1926 N   0  0  0  0  0  0  0  0  0  0  0  0
    5.8995    0.2102   21.4463 C   0  0  0  0  0  0  0  0  0  0  0  0
    7.2872    0.4122   21.9786 C   0  0  0  0  0  0  0  0  0  0  0  0
    8.6905    0.4580   22.5065 C   0  0  0  0  0  0  0  0  0  0  0  0
    9.5222    1.2656   22.8704 O   0  0  0  0  0  0  0  0  0  0  0  0
    9.1957   -0.9511   22.6032 N   0  0  0  0  0  0  0  0  0  0  0  0
    8.1045   -1.8678   22.1351 C   0  0  0  0  0  0  0  0  0  0  0  0
    6.9251   -1.0253   21.7491 C   0  0  0  0  0  0  0  0  0  0  0  0
    7.7893    1.7980   22.2571 C   0  0  0  0  0  0  0  0  0  0  0  0
    9.1771    2.0000   22.7894 C   0  0  0  0  0  0  0  0  0  0  0  0
    9.6791    3.3857   23.0679 C   0  0  0  0  0  0  0  0  0  0  0  0
   11.0669    3.5878   23.6002 Cl  0  0  0  0  0  0  0  0  0  0  0  0
    8.7935    4.5694   22.8141 C   0  0  0  0  0  0  0  0  0  0  0  0
    7.4058    4.3674   22.2818 C   0  0  0  0  0  0  0  0  0  0  0  0
    6.9037    2.9817   22.0034 C   0  0  0  0  0  0  0  0  0  0  0  0
    5.5159    2.7796   21.4711 C   0  0  0  0  0  0  0  0  0  0  0  0
    4.6302    3.9633   21.2173 O   0  0  0  0  0  0  0  0  0  0  0  0
   10.5535   -1.3699   23.0836 C   0  0  0  0  0  0  0  0  0  0  0  0
   11.7707   -1.0427   22.2704 C   0  0  0  0  0  0  0  0  0  0  0  0
   13.1286   -1.4615   22.7508 N   0  0  0  0  0  0  0  0  0  0  0  0
   13.2692   -2.2075   24.0445 C   0  0  0  0  0  0  0  0  0  0  0  0
   12.0520   -2.5347   24.8578 C   0  0  0  0  0  0  0  0  0  0  0  0
   12.1927   -3.2807   26.1515 C   0  0  0  0  0  0  0  0  0  0  0  0
   10.9754   -3.6079   26.9647 C   0  0  0  0  0  0  0  0  0  0  0  0
    9.6176   -3.1891   26.4842 C   0  0  0  0  0  0  0  0  0  0  0  0
    9.4769   -2.4431   25.1905 C   0  0  0  0  0  0  0  0  0  0  0  0
   10.6941   -2.1159   24.3773 C   0  0  0  0  0  0  0  0  0  0  0  0
    3.6260    1.1918   20.6603 C   0  0  0  0  0  0  0  0  0  0  0  0
    3.1332    2.0259   19.5151 C   0  0  0  0  0  0  0  0  0  0  0  0
    4.7727    0.8174   17.9023 C   0  0  0  0  0  0  0  0  0  0  0  0
    3.7929    1.9206   18.1721 N   0  0  0  0  0  0  0  0  0  0  0  0
    3.5752    2.5992   17.4424 H   0  0  0  0  0  0  0  0  0  0  0  0
    3.1266    2.6708   18.3556 H   0  0  0  0  0  0  0  0  0  0  0  0
    5.6137   -1.5313   21.2255 C   0  0  0  0  0  0  0  0  0  0  0  0
    5.3611   -3.0071   21.1357 O   0  0  0  0  0  0  0  0  0  0  0  0
    5.3432   -3.8422   22.3816 C   0  0  0  0  0  0  0  0  0  0  0  0
    6.0393   -5.1707   22.4042 C   0  0  0  0  0  0  0  0  0  0  0  0
    5.4745   -5.4895   21.0516 F   0  0  0  0  0  0  0  0  0  0  0  0
    6.6040   -4.8519   23.7567 C   0  0  0  0  0  0  0  0  0  0  0  0
    7.3000   -6.1805   23.7792 O   0  0  0  0  0  0  0  0  0  0  0  0
    6.7353   -6.4993   22.4267 C   0  0  0  0  0  0  0  0  0  0  0  0
 30 31  1  0  0  0
 31 29  1  0  0  0
 29 28  1  0  0  0
 28  1  1  0  0  0
  1  2  1  0  0  0
  3  2  1  0  0  0
  3  4  1  0  0  0
  4  5  2  0  0  0
  4  6  1  0  0  0
  6 18  1  0  0  0
 18 19  2  0  0  0
 19 20  1  0  0  0
 20 21  2  0  0  0
 21 22  1  0  0  0
 22 23  2  0  0  0
 23 24  1  0  0  0
 24 25  2  0  0  0
 25 26  1  0  0  0
 26 27  2  0  0  0
  6  7  1  0  0  0
  7  8  1  0  0  0
  8 34  1  0  0  0
 34 35  1  0  0  0
 35 36  1  0  0  0
 36 37  1  0  0  0
 37 38  1  0  0  0
 37 39  1  0  0  0
 39 40  1  0  0  0
 40 41  1  0  0  0
  3  9  1  0  0  0
  9 10  2  0  0  0
 10 11  1  0  0  0
 11 12  1  0  0  0
 11 13  2  0  0  0
 13 14  1  0  0  0
 14 15  2  0  0  0
 15 16  1  0  0  0
 16 17  2  0  0  0
 16  1  1  0  0  0
  8  3  1  0  0  0
 41 37  1  0  0  0
 15  9  1  0  0  0
 27 18  1  0  0  0
 27 22  1  0  0  0
 31 32  1  0  0  0
 31 33  1  0  0  0
M  CHG 1  31   1
M  END
> <minimizedAffinity>
-8.19051

> <CNNscore>
0.1743273586

> <CNNaffinity>
6.4982299805

> <CNN_VS>
1.1328192949

> <CNNaffinity_variance>
0.2525632977

$$$$
