


 41 46  0  0  0  0  0  0  0  0999 V2000
   -6.9704   -0.9084  -22.9591 N   0  0  0  0  0  0  0  0  0  0  0  0
   -7.4407    0.4987  -23.1808 C   0  0  0  0  0  0  0  0  0  0  0  0
   -8.9067    0.7876  -23.3118 C   0  0  0  0  0  0  0  0  0  0  0  0
  -10.3330    1.2274  -23.4609 C   0  0  0  0  0  0  0  0  0  0  0  0
  -11.4550    0.7611  -23.4671 O   0  0  0  0  0  0  0  0  0  0  0  0
  -10.3410    2.7135  -23.6646 N   0  0  0  0  0  0  0  0  0  0  0  0
   -8.9197    3.1922  -23.6414 C   0  0  0  0  0  0  0  0  0  0  0  0
   -8.0332    2.0019  -23.4233 C   0  0  0  0  0  0  0  0  0  0  0  0
   -9.9026   -0.3305  -23.2210 C   0  0  0  0  0  0  0  0  0  0  0  0
  -11.3686   -0.0415  -23.3519 C   0  0  0  0  0  0  0  0  0  0  0  0
  -12.3644   -1.1596  -23.2612 C   0  0  0  0  0  0  0  0  0  0  0  0
  -13.8305   -0.8707  -23.3921 Cl  0  0  0  0  0  0  0  0  0  0  0  0
  -11.8941   -2.5666  -23.0395 C   0  0  0  0  0  0  0  0  0  0  0  0
  -10.4281   -2.8556  -22.9085 C   0  0  0  0  0  0  0  0  0  0  0  0
   -9.4323   -1.7375  -22.9993 C   0  0  0  0  0  0  0  0  0  0  0  0
   -7.9662   -2.0264  -22.8683 C   0  0  0  0  0  0  0  0  0  0  0  0
   -7.4959   -3.4335  -22.6466 O   0  0  0  0  0  0  0  0  0  0  0  0
  -11.5569    3.5704  -23.8576 C   0  0  0  0  0  0  0  0  0  0  0  0
  -12.5194    3.7727  -22.7250 C   0  0  0  0  0  0  0  0  0  0  0  0
  -13.7353    4.6296  -22.9180 N   0  0  0  0  0  0  0  0  0  0  0  0
  -13.9888    5.2842  -24.2436 C   0  0  0  0  0  0  0  0  0  0  0  0
  -13.0263    5.0818  -25.3762 C   0  0  0  0  0  0  0  0  0  0  0  0
  -13.2799    5.7364  -26.7019 C   0  0  0  0  0  0  0  0  0  0  0  0
  -12.3174    5.5340  -27.8344 C   0  0  0  0  0  0  0  0  0  0  0  0
  -11.1015    4.6771  -27.6414 C   0  0  0  0  0  0  0  0  0  0  0  0
  -10.8480    4.0225  -26.3158 C   0  0  0  0  0  0  0  0  0  0  0  0
  -11.8104    4.2249  -25.1832 C   0  0  0  0  0  0  0  0  0  0  0  0
   -5.5043   -1.1973  -22.8281 C   0  0  0  0  0  0  0  0  0  0  0  0
   -4.7133   -0.5734  -21.7168 C   0  0  0  0  0  0  0  0  0  0  0  0
   -5.4246   -2.3052  -19.9156 C   0  0  0  0  0  0  0  0  0  0  0  0
   -5.0334   -0.9063  -20.2897 N   0  0  0  0  0  0  0  0  0  0  0  0
   -4.9850   -0.1815  -19.5737 H   0  0  0  0  0  0  0  0  0  0  0  0
   -4.7673    0.0449  -20.5442 H   0  0  0  0  0  0  0  0  0  0  0  0
   -6.5361    2.0224  -23.3327 C   0  0  0  0  0  0  0  0  0  0  0  0
   -5.8613    2.7987  -22.2410 O   0  0  0  0  0  0  0  0  0  0  0  0
   -5.3045    4.1624  -22.5243 C   0  0  0  0  0  0  0  0  0  0  0  0
   -6.2316    5.3075  -22.8055 C   0  0  0  0  0  0  0  0  0  0  0  0
   -6.9653    5.0273  -21.5275 F   0  0  0  0  0  0  0  0  0  0  0  0
   -5.4979    5.5877  -24.0835 C   0  0  0  0  0  0  0  0  0  0  0  0
   -6.4251    6.7328  -24.3647 O   0  0  0  0  0  0  0  0  0  0  0  0
   -7.1587    6.4526  -23.0867 C   0  0  0  0  0  0  0  0  0  0  0  0
 30 31  1  0  0  0
 31 29  1  0  0  0
 29 28  1  0  0  0
 28  1  1  0  0  0
  1  2  1  0  0  0
  3  2  1  0  0  0
  3  4  1  0  0  0
  4  5  2  0  0  0
  4  6  1  0  0  0
  6 18  1  0  0  0
 18 19  2  0  0  0
 19 20  1  0  0  0
 20 21  2  0  0  0
 21 22  1  0  0  0
 22 23  2  0  0  0
 23 24  1  0  0  0
 24 25  2  0  0  0
 25 26  1  0  0  0
 26 27  2  0  0  0
  6  7  1  0  0  0
  7  8  1  0  0  0
  8 34  1  0  0  0
 34 35  1  0  0  0
 35 36  1  0  0  0
 36 37  1  0  0  0
 37 38  1  0  0  0
 37 39  1  0  0  0
 39 40  1  0  0  0
 40 41  1  0  0  0
  3  9  1  0  0  0
  9 10  2  0  0  0
 10 11  1  0  0  0
 11 12  1  0  0  0
 11 13  2  0  0  0
 13 14  1  0  0  0
 14 15  2  0  0  0
 15 16  1  0  0  0
 16 17  2  0  0  0
 16  1  1  0  0  0
  8  3  1  0  0  0
 41 37  1  0  0  0
 15  9  1  0  0  0
 27 18  1  0  0  0
 27 22  1  0  0  0
 31 32  1  0  0  0
 31 33  1  0  0  0
M  CHG 1  31   1
M  END
> <minimizedAffinity>
-7.09138

> <CNNscore>
0.6716809869

> <CNNaffinity>
6.8897070885

> <CNN_VS>
4.6276850700

> <CNNaffinity_variance>
0.1497456282

$$$$



 41 46  0  0  0  0  0  0  0  0999 V2000
   -7.1852   -1.1749  -23.6558 N   0  0  0  0  0  0  0  0  0  0  0  0
   -7.6018    0.2621  -23.7629 C   0  0  0  0  0  0  0  0  0  0  0  0
   -9.0530    0.6308  -23.6747 C   0  0  0  0  0  0  0  0  0  0  0  0
  -10.4591    1.1488  -23.6053 C   0  0  0  0  0  0  0  0  0  0  0  0
  -11.5954    0.7413  -23.4670 O   0  0  0  0  0  0  0  0  0  0  0  0
  -10.4117    2.6403  -23.7577 N   0  0  0  0  0  0  0  0  0  0  0  0
   -8.9764    3.0441  -23.9214 C   0  0  0  0  0  0  0  0  0  0  0  0
   -8.1367    1.8022  -23.8701 C   0  0  0  0  0  0  0  0  0  0  0  0
  -10.0878   -0.4374  -23.4795 C   0  0  0  0  0  0  0  0  0  0  0  0
  -11.5391   -0.0687  -23.3913 C   0  0  0  0  0  0  0  0  0  0  0  0
  -12.5738   -1.1369  -23.1960 C   0  0  0  0  0  0  0  0  0  0  0  0
  -14.0251   -0.7682  -23.1078 Cl  0  0  0  0  0  0  0  0  0  0  0  0
  -12.1572   -2.5739  -23.0889 C   0  0  0  0  0  0  0  0  0  0  0  0
  -10.7060   -2.9427  -23.1771 C   0  0  0  0  0  0  0  0  0  0  0  0
   -9.6713   -1.8745  -23.3724 C   0  0  0  0  0  0  0  0  0  0  0  0
   -8.2199   -2.2432  -23.4606 C   0  0  0  0  0  0  0  0  0  0  0  0
   -7.8034   -3.6802  -23.3535 O   0  0  0  0  0  0  0  0  0  0  0  0
  -11.5924    3.5654  -23.7481 C   0  0  0  0  0  0  0  0  0  0  0  0
  -12.4333    3.6956  -22.5128 C   0  0  0  0  0  0  0  0  0  0  0  0
  -13.6139    4.6208  -22.5032 N   0  0  0  0  0  0  0  0  0  0  0  0
  -13.9537    5.4158  -23.7290 C   0  0  0  0  0  0  0  0  0  0  0  0
  -13.1128    5.2856  -24.9643 C   0  0  0  0  0  0  0  0  0  0  0  0
  -13.4527    6.0807  -26.1901 C   0  0  0  0  0  0  0  0  0  0  0  0
  -12.6117    5.9504  -27.4254 C   0  0  0  0  0  0  0  0  0  0  0  0
  -11.4311    5.0253  -27.4350 C   0  0  0  0  0  0  0  0  0  0  0  0
  -11.0913    4.2303  -26.2092 C   0  0  0  0  0  0  0  0  0  0  0  0
  -11.9322    4.3604  -24.9739 C   0  0  0  0  0  0  0  0  0  0  0  0
   -5.7339   -1.5437  -23.7440 C   0  0  0  0  0  0  0  0  0  0  0  0
   -5.1001   -1.7796  -25.0829 C   0  0  0  0  0  0  0  0  0  0  0  0
   -5.4278   -3.8928  -26.5584 C   0  0  0  0  0  0  0  0  0  0  0  0
   -4.6811   -3.1638  -25.4809 N   0  0  0  0  0  0  0  0  0  0  0  0
   -3.8883   -3.6093  -25.0189 H   0  0  0  0  0  0  0  0  0  0  0  0
   -4.1733   -2.6681  -24.7482 H   0  0  0  0  0  0  0  0  0  0  0  0
   -6.6429    1.7423  -23.9927 C   0  0  0  0  0  0  0  0  0  0  0  0
   -5.7782    2.3627  -22.9358 O   0  0  0  0  0  0  0  0  0  0  0  0
   -4.5290    1.6658  -22.4843 C   0  0  0  0  0  0  0  0  0  0  0  0
   -4.2723    1.4598  -21.0208 C   0  0  0  0  0  0  0  0  0  0  0  0
   -5.2320    0.3071  -21.0147 F   0  0  0  0  0  0  0  0  0  0  0  0
   -3.3125    2.6125  -21.0269 C   0  0  0  0  0  0  0  0  0  0  0  0
   -3.0558    2.4065  -19.5635 O   0  0  0  0  0  0  0  0  0  0  0  0
   -4.0155    1.2538  -19.5574 C   0  0  0  0  0  0  0  0  0  0  0  0
 30 31  1  0  0  0
 31 29  1  0  0  0
 29 28  1  0  0  0
 28  1  1  0  0  0
  1  2  1  0  0  0
  3  2  1  0  0  0
  3  4  1  0  0  0
  4  5  2  0  0  0
  4  6  1  0  0  0
  6 18  1  0  0  0
 18 19  2  0  0  0
 19 20  1  0  0  0
 20 21  2  0  0  0
 21 22  1  0  0  0
 22 23  2  0  0  0
 23 24  1  0  0  0
 24 25  2  0  0  0
 25 26  1  0  0  0
 26 27  2  0  0  0
  6  7  1  0  0  0
  7  8  1  0  0  0
  8 34  1  0  0  0
 34 35  1  0  0  0
 35 36  1  0  0  0
 36 37  1  0  0  0
 37 38  1  0  0  0
 37 39  1  0  0  0
 39 40  1  0  0  0
 40 41  1  0  0  0
  3  9  1  0  0  0
  9 10  2  0  0  0
 10 11  1  0  0  0
 11 12  1  0  0  0
 11 13  2  0  0  0
 13 14  1  0  0  0
 14 15  2  0  0  0
 15 16  1  0  0  0
 16 17  2  0  0  0
 16  1  1  0  0  0
  8  3  1  0  0  0
 41 37  1  0  0  0
 15  9  1  0  0  0
 27 18  1  0  0  0
 27 22  1  0  0  0
 31 32  1  0  0  0
 31 33  1  0  0  0
M  CHG 1  31   1
M  END
> <minimizedAffinity>
-7.23095

> <CNNscore>
0.6530012488

> <CNNaffinity>
6.6968917847

> <CNN_VS>
4.3730788231

> <CNNaffinity_variance>
0.0992189795

$$$$



 41 46  0  0  0  0  0  0  0  0999 V2000
   -8.4064   -5.6248  -24.4754 N   0  0  0  0  0  0  0  0  0  0  0  0
   -7.3559   -5.2633  -23.4676 C   0  0  0  0  0  0  0  0  0  0  0  0
   -7.3947   -3.9253  -22.7907 C   0  0  0  0  0  0  0  0  0  0  0  0
   -7.3042   -2.6317  -22.0368 C   0  0  0  0  0  0  0  0  0  0  0  0
   -7.8898   -1.5723  -21.9323 O   0  0  0  0  0  0  0  0  0  0  0  0
   -6.1038   -2.7009  -21.1400 N   0  0  0  0  0  0  0  0  0  0  0  0
   -5.4524   -4.0373  -21.3397 C   0  0  0  0  0  0  0  0  0  0  0  0
   -6.2503   -4.7940  -22.3599 C   0  0  0  0  0  0  0  0  0  0  0  0
   -8.4841   -2.9487  -23.1217 C   0  0  0  0  0  0  0  0  0  0  0  0
   -8.5229   -1.6106  -22.4449 C   0  0  0  0  0  0  0  0  0  0  0  0
   -9.6123   -0.6341  -22.7758 C   0  0  0  0  0  0  0  0  0  0  0  0
   -9.6511    0.7040  -22.0990 Cl  0  0  0  0  0  0  0  0  0  0  0  0
  -10.6628   -0.9955  -23.7837 C   0  0  0  0  0  0  0  0  0  0  0  0
  -10.6240   -2.3335  -24.4605 C   0  0  0  0  0  0  0  0  0  0  0  0
   -9.5346   -3.3101  -24.1295 C   0  0  0  0  0  0  0  0  0  0  0  0
   -9.4958   -4.6482  -24.8064 C   0  0  0  0  0  0  0  0  0  0  0  0
  -10.5463   -5.0096  -25.8142 O   0  0  0  0  0  0  0  0  0  0  0  0
   -5.6367   -1.6230  -20.2072 C   0  0  0  0  0  0  0  0  0  0  0  0
   -5.9969   -1.6822  -18.7523 C   0  0  0  0  0  0  0  0  0  0  0  0
   -5.5298   -0.6043  -17.8196 N   0  0  0  0  0  0  0  0  0  0  0  0
   -4.7027    0.5329  -18.3418 C   0  0  0  0  0  0  0  0  0  0  0  0
   -4.3426    0.5921  -19.7968 C   0  0  0  0  0  0  0  0  0  0  0  0
   -3.5154    1.7293  -20.3190 C   0  0  0  0  0  0  0  0  0  0  0  0
   -3.1553    1.7884  -21.7739 C   0  0  0  0  0  0  0  0  0  0  0  0
   -3.6223    0.7105  -22.7066 C   0  0  0  0  0  0  0  0  0  0  0  0
   -4.4495   -0.4267  -22.1844 C   0  0  0  0  0  0  0  0  0  0  0  0
   -4.8096   -0.4859  -20.7295 C   0  0  0  0  0  0  0  0  0  0  0  0
   -8.3676   -6.9629  -25.1523 C   0  0  0  0  0  0  0  0  0  0  0  0
   -9.3492   -7.2815  -26.2409 C   0  0  0  0  0  0  0  0  0  0  0  0
   -8.4935   -6.4123  -28.5348 C   0  0  0  0  0  0  0  0  0  0  0  0
   -8.8627   -7.5530  -27.6335 N   0  0  0  0  0  0  0  0  0  0  0  0
   -8.7828   -8.5135  -27.9676 H   0  0  0  0  0  0  0  0  0  0  0  0
   -9.1137   -8.3288  -27.0206 H   0  0  0  0  0  0  0  0  0  0  0  0
   -5.9554   -6.1766  -22.8612 C   0  0  0  0  0  0  0  0  0  0  0  0
   -4.5952   -6.7747  -22.6560 O   0  0  0  0  0  0  0  0  0  0  0  0
   -3.8777   -7.4184  -23.8052 C   0  0  0  0  0  0  0  0  0  0  0  0
   -2.4246   -7.1288  -24.0391 C   0  0  0  0  0  0  0  0  0  0  0  0
   -2.0692   -7.9282  -22.8206 F   0  0  0  0  0  0  0  0  0  0  0  0
   -2.7800   -6.3295  -25.2576 C   0  0  0  0  0  0  0  0  0  0  0  0
   -1.3270   -6.0399  -25.4915 O   0  0  0  0  0  0  0  0  0  0  0  0
   -0.9716   -6.8393  -24.2730 C   0  0  0  0  0  0  0  0  0  0  0  0
 30 31  1  0  0  0
 31 29  1  0  0  0
 29 28  1  0  0  0
 28  1  1  0  0  0
  1  2  1  0  0  0
  3  2  1  0  0  0
  3  4  1  0  0  0
  4  5  2  0  0  0
  4  6  1  0  0  0
  6 18  1  0  0  0
 18 19  2  0  0  0
 19 20  1  0  0  0
 20 21  2  0  0  0
 21 22  1  0  0  0
 22 23  2  0  0  0
 23 24  1  0  0  0
 24 25  2  0  0  0
 25 26  1  0  0  0
 26 27  2  0  0  0
  6  7  1  0  0  0
  7  8  1  0  0  0
  8 34  1  0  0  0
 34 35  1  0  0  0
 35 36  1  0  0  0
 36 37  1  0  0  0
 37 38  1  0  0  0
 37 39  1  0  0  0
 39 40  1  0  0  0
 40 41  1  0  0  0
  3  9  1  0  0  0
  9 10  2  0  0  0
 10 11  1  0  0  0
 11 12  1  0  0  0
 11 13  2  0  0  0
 13 14  1  0  0  0
 14 15  2  0  0  0
 15 16  1  0  0  0
 16 17  2  0  0  0
 16  1  1  0  0  0
  8  3  1  0  0  0
 41 37  1  0  0  0
 15  9  1  0  0  0
 27 18  1  0  0  0
 27 22  1  0  0  0
 31 32  1  0  0  0
 31 33  1  0  0  0
M  CHG 1  31   1
M  END
> <minimizedAffinity>
-8.54265

> <CNNscore>
0.4834831953

> <CNNaffinity>
6.6412153244

> <CNN_VS>
3.2109160423

> <CNNaffinity_variance>
0.4318279624

$$$$



 41 46  0  0  0  0  0  0  0  0999 V2000
   -5.4700   -6.1642  -23.4883 N   0  0  0  0  0  0  0  0  0  0  0  0
   -6.0652   -4.9167  -22.9057 C   0  0  0  0  0  0  0  0  0  0  0  0
   -7.0887   -4.1413  -23.6810 C   0  0  0  0  0  0  0  0  0  0  0  0
   -8.1167   -3.2663  -24.3349 C   0  0  0  0  0  0  0  0  0  0  0  0
   -8.7605   -3.1952  -25.3629 O   0  0  0  0  0  0  0  0  0  0  0  0
   -8.4238   -2.1339  -23.4003 N   0  0  0  0  0  0  0  0  0  0  0  0
   -7.5855   -2.3090  -22.1688 C   0  0  0  0  0  0  0  0  0  0  0  0
   -6.7604   -3.5496  -22.3423 C   0  0  0  0  0  0  0  0  0  0  0  0
   -7.5171   -4.6134  -25.0388 C   0  0  0  0  0  0  0  0  0  0  0  0
   -8.5407   -3.8380  -25.8140 C   0  0  0  0  0  0  0  0  0  0  0  0
   -8.9690   -4.3101  -27.1718 C   0  0  0  0  0  0  0  0  0  0  0  0
   -9.9926   -3.5347  -27.9471 Cl  0  0  0  0  0  0  0  0  0  0  0  0
   -8.3738   -5.5577  -27.7543 C   0  0  0  0  0  0  0  0  0  0  0  0
   -7.3503   -6.3331  -26.9791 C   0  0  0  0  0  0  0  0  0  0  0  0
   -6.9219   -5.8609  -25.6213 C   0  0  0  0  0  0  0  0  0  0  0  0
   -5.8983   -6.6364  -24.8460 C   0  0  0  0  0  0  0  0  0  0  0  0
   -5.3031   -7.8839  -25.4286 O   0  0  0  0  0  0  0  0  0  0  0  0
   -9.3981   -1.0217  -23.6529 C   0  0  0  0  0  0  0  0  0  0  0  0
   -8.9182    0.2814  -24.2202 C   0  0  0  0  0  0  0  0  0  0  0  0
   -9.8924    1.3936  -24.4728 N   0  0  0  0  0  0  0  0  0  0  0  0
  -11.3466    1.2027  -24.1582 C   0  0  0  0  0  0  0  0  0  0  0  0
  -11.8264   -0.1004  -23.5909 C   0  0  0  0  0  0  0  0  0  0  0  0
  -13.2807   -0.2912  -23.2763 C   0  0  0  0  0  0  0  0  0  0  0  0
  -13.7605   -1.5943  -22.7090 C   0  0  0  0  0  0  0  0  0  0  0  0
  -12.7862   -2.7065  -22.4564 C   0  0  0  0  0  0  0  0  0  0  0  0
  -11.3321   -2.5156  -22.7710 C   0  0  0  0  0  0  0  0  0  0  0  0
  -10.8522   -1.2126  -23.3383 C   0  0  0  0  0  0  0  0  0  0  0  0
   -4.4464   -6.9397  -22.7130 C   0  0  0  0  0  0  0  0  0  0  0  0
   -3.0518   -7.0829  -23.2464 C   0  0  0  0  0  0  0  0  0  0  0  0
   -0.6541   -8.0137  -22.8791 C   0  0  0  0  0  0  0  0  0  0  0  0
   -2.1367   -8.1289  -22.6821 N   0  0  0  0  0  0  0  0  0  0  0  0
   -2.5225   -8.9185  -22.1644 H   0  0  0  0  0  0  0  0  0  0  0  0
   -3.1448   -8.2072  -22.5481 H   0  0  0  0  0  0  0  0  0  0  0  0
   -5.7792   -4.1016  -21.3510 C   0  0  0  0  0  0  0  0  0  0  0  0
   -5.0592   -3.1777  -20.4142 O   0  0  0  0  0  0  0  0  0  0  0  0
   -5.2515   -1.6944  -20.5283 C   0  0  0  0  0  0  0  0  0  0  0  0
   -5.2598   -0.8421  -19.2940 C   0  0  0  0  0  0  0  0  0  0  0  0
   -6.0619   -1.8875  -18.5774 F   0  0  0  0  0  0  0  0  0  0  0  0
   -4.4576    0.2034  -20.0107 C   0  0  0  0  0  0  0  0  0  0  0  0
   -4.4659    1.0558  -18.7764 O   0  0  0  0  0  0  0  0  0  0  0  0
   -5.2680    0.0103  -18.0598 C   0  0  0  0  0  0  0  0  0  0  0  0
 30 31  1  0  0  0
 31 29  1  0  0  0
 29 28  1  0  0  0
 28  1  1  0  0  0
  1  2  1  0  0  0
  3  2  1  0  0  0
  3  4  1  0  0  0
  4  5  2  0  0  0
  4  6  1  0  0  0
  6 18  1  0  0  0
 18 19  2  0  0  0
 19 20  1  0  0  0
 20 21  2  0  0  0
 21 22  1  0  0  0
 22 23  2  0  0  0
 23 24  1  0  0  0
 24 25  2  0  0  0
 25 26  1  0  0  0
 26 27  2  0  0  0
  6  7  1  0  0  0
  7  8  1  0  0  0
  8 34  1  0  0  0
 34 35  1  0  0  0
 35 36  1  0  0  0
 36 37  1  0  0  0
 37 38  1  0  0  0
 37 39  1  0  0  0
 39 40  1  0  0  0
 40 41  1  0  0  0
  3  9  1  0  0  0
  9 10  2  0  0  0
 10 11  1  0  0  0
 11 12  1  0  0  0
 11 13  2  0  0  0
 13 14  1  0  0  0
 14 15  2  0  0  0
 15 16  1  0  0  0
 16 17  2  0  0  0
 16  1  1  0  0  0
  8  3  1  0  0  0
 41 37  1  0  0  0
 15  9  1  0  0  0
 27 18  1  0  0  0
 27 22  1  0  0  0
 31 32  1  0  0  0
 31 33  1  0  0  0
M  CHG 1  31   1
M  END
> <minimizedAffinity>
-8.00756

> <CNNscore>
0.3289198875

> <CNNaffinity>
6.5846710205

> <CNN_VS>
2.1658291817

> <CNNaffinity_variance>
0.1442844570

$$$$



 41 46  0  0  0  0  0  0  0  0999 V2000
   -8.1016    2.3670  -23.9460 N   0  0  0  0  0  0  0  0  0  0  0  0
   -7.3103    1.0942  -24.0097 C   0  0  0  0  0  0  0  0  0  0  0  0
   -8.0038   -0.2280  -23.8662 C   0  0  0  0  0  0  0  0  0  0  0  0
   -8.5561   -1.6169  -23.7399 C   0  0  0  0  0  0  0  0  0  0  0  0
   -9.6170   -2.1851  -23.5726 O   0  0  0  0  0  0  0  0  0  0  0  0
   -7.4149   -2.5826  -23.8631 N   0  0  0  0  0  0  0  0  0  0  0  0
   -6.1573   -1.7906  -24.0656 C   0  0  0  0  0  0  0  0  0  0  0  0
   -6.5212   -0.3354  -24.0675 C   0  0  0  0  0  0  0  0  0  0  0  0
   -9.4886   -0.2776  -23.6590 C   0  0  0  0  0  0  0  0  0  0  0  0
  -10.1821   -1.5999  -23.5155 C   0  0  0  0  0  0  0  0  0  0  0  0
  -11.6668   -1.6495  -23.3082 C   0  0  0  0  0  0  0  0  0  0  0  0
  -12.3604   -2.9718  -23.1647 Cl  0  0  0  0  0  0  0  0  0  0  0  0
  -12.4581   -0.3767  -23.2445 C   0  0  0  0  0  0  0  0  0  0  0  0
  -11.7646    0.9455  -23.3880 C   0  0  0  0  0  0  0  0  0  0  0  0
  -10.2799    0.9951  -23.5952 C   0  0  0  0  0  0  0  0  0  0  0  0
   -9.5863    2.3174  -23.7387 C   0  0  0  0  0  0  0  0  0  0  0  0
  -10.3776    3.5901  -23.6750 O   0  0  0  0  0  0  0  0  0  0  0  0
   -7.5140   -4.0778  -23.7956 C   0  0  0  0  0  0  0  0  0  0  0  0
   -7.0233   -4.8080  -22.5807 C   0  0  0  0  0  0  0  0  0  0  0  0
   -7.1224   -6.3032  -22.5132 N   0  0  0  0  0  0  0  0  0  0  0  0
   -7.7122   -7.0682  -23.6607 C   0  0  0  0  0  0  0  0  0  0  0  0
   -8.2030   -6.3380  -24.8756 C   0  0  0  0  0  0  0  0  0  0  0  0
   -8.7929   -7.1032  -26.0232 C   0  0  0  0  0  0  0  0  0  0  0  0
   -9.2836   -6.3729  -27.2381 C   0  0  0  0  0  0  0  0  0  0  0  0
   -9.1845   -4.8777  -27.3055 C   0  0  0  0  0  0  0  0  0  0  0  0
   -8.5946   -4.1127  -26.1580 C   0  0  0  0  0  0  0  0  0  0  0  0
   -8.1039   -4.8428  -24.9431 C   0  0  0  0  0  0  0  0  0  0  0  0
   -7.4080    3.6893  -24.0895 C   0  0  0  0  0  0  0  0  0  0  0  0
   -7.2638    4.5934  -22.9013 C   0  0  0  0  0  0  0  0  0  0  0  0
   -8.6280    6.4733  -24.0650 C   0  0  0  0  0  0  0  0  0  0  0  0
   -8.0691    5.8560  -22.8174 N   0  0  0  0  0  0  0  0  0  0  0  0
   -8.2367    6.2948  -21.9120 H   0  0  0  0  0  0  0  0  0  0  0  0
   -7.6891    5.4362  -21.9690 H   0  0  0  0  0  0  0  0  0  0  0  0
   -5.5696    0.8112  -24.2404 C   0  0  0  0  0  0  0  0  0  0  0  0
   -4.2259    0.7776  -23.5748 O   0  0  0  0  0  0  0  0  0  0  0  0
   -4.0699    0.1266  -22.2324 C   0  0  0  0  0  0  0  0  0  0  0  0
   -3.5906    0.9304  -21.0602 C   0  0  0  0  0  0  0  0  0  0  0  0
   -2.4682    1.4753  -21.8927 F   0  0  0  0  0  0  0  0  0  0  0  0
   -4.7131    0.3855  -20.2277 C   0  0  0  0  0  0  0  0  0  0  0  0
   -4.2339    1.1894  -19.0554 O   0  0  0  0  0  0  0  0  0  0  0  0
   -3.1114    1.7343  -19.8880 C   0  0  0  0  0  0  0  0  0  0  0  0
 30 31  1  0  0  0
 31 29  1  0  0  0
 29 28  1  0  0  0
 28  1  1  0  0  0
  1  2  1  0  0  0
  3  2  1  0  0  0
  3  4  1  0  0  0
  4  5  2  0  0  0
  4  6  1  0  0  0
  6 18  1  0  0  0
 18 19  2  0  0  0
 19 20  1  0  0  0
 20 21  2  0  0  0
 21 22  1  0  0  0
 22 23  2  0  0  0
 23 24  1  0  0  0
 24 25  2  0  0  0
 25 26  1  0  0  0
 26 27  2  0  0  0
  6  7  1  0  0  0
  7  8  1  0  0  0
  8 34  1  0  0  0
 34 35  1  0  0  0
 35 36  1  0  0  0
 36 37  1  0  0  0
 37 38  1  0  0  0
 37 39  1  0  0  0
 39 40  1  0  0  0
 40 41  1  0  0  0
  3  9  1  0  0  0
  9 10  2  0  0  0
 10 11  1  0  0  0
 11 12  1  0  0  0
 11 13  2  0  0  0
 13 14  1  0  0  0
 14 15  2  0  0  0
 15 16  1  0  0  0
 16 17  2  0  0  0
 16  1  1  0  0  0
  8  3  1  0  0  0
 41 37  1  0  0  0
 15  9  1  0  0  0
 27 18  1  0  0  0
 27 22  1  0  0  0
 31 32  1  0  0  0
 31 33  1  0  0  0
M  CHG 1  31   1
M  END
> <minimizedAffinity>
-7.13577

> <CNNscore>
0.1674603820

> <CNNaffinity>
6.2425680161

> <CNN_VS>
1.0453828573

> <CNNaffinity_variance>
0.2781582475

$$$$



 41 46  0  0  0  0  0  0  0  0999 V2000
   -6.8760   -1.3062  -23.3644 N   0  0  0  0  0  0  0  0  0  0  0  0
   -8.3153   -0.9259  -23.5484 C   0  0  0  0  0  0  0  0  0  0  0  0
   -8.7314    0.5110  -23.4383 C   0  0  0  0  0  0  0  0  0  0  0  0
   -9.2938    1.8992  -23.3577 C   0  0  0  0  0  0  0  0  0  0  0  0
   -8.9292    3.0411  -23.1588 O   0  0  0  0  0  0  0  0  0  0  0  0
  -10.7710    1.8160  -23.6048 N   0  0  0  0  0  0  0  0  0  0  0  0
  -11.1215    0.3764  -23.8381 C   0  0  0  0  0  0  0  0  0  0  0  0
   -9.8610   -0.4302  -23.7352 C   0  0  0  0  0  0  0  0  0  0  0  0
   -7.7081    1.5677  -23.1443 C   0  0  0  0  0  0  0  0  0  0  0  0
   -8.1242    3.0046  -23.0343 C   0  0  0  0  0  0  0  0  0  0  0  0
   -7.1010    4.0613  -22.7402 C   0  0  0  0  0  0  0  0  0  0  0  0
   -7.5170    5.4983  -22.6302 Cl  0  0  0  0  0  0  0  0  0  0  0  0
   -5.6617    3.6810  -22.5563 C   0  0  0  0  0  0  0  0  0  0  0  0
   -5.2456    2.2441  -22.6663 C   0  0  0  0  0  0  0  0  0  0  0  0
   -6.2688    1.1875  -22.9603 C   0  0  0  0  0  0  0  0  0  0  0  0
   -5.8528   -0.2495  -23.0704 C   0  0  0  0  0  0  0  0  0  0  0  0
   -4.4135   -0.6298  -22.8864 O   0  0  0  0  0  0  0  0  0  0  0  0
  -11.7293    2.9699  -23.6165 C   0  0  0  0  0  0  0  0  0  0  0  0
  -12.7392    3.1173  -22.5172 C   0  0  0  0  0  0  0  0  0  0  0  0
  -13.6975    4.2712  -22.5289 N   0  0  0  0  0  0  0  0  0  0  0  0
  -13.6460    5.2777  -23.6399 C   0  0  0  0  0  0  0  0  0  0  0  0
  -12.6361    5.1303  -24.7392 C   0  0  0  0  0  0  0  0  0  0  0  0
  -12.5846    6.1368  -25.8502 C   0  0  0  0  0  0  0  0  0  0  0  0
  -11.5746    5.9893  -26.9495 C   0  0  0  0  0  0  0  0  0  0  0  0
  -10.6163    4.8354  -26.9378 C   0  0  0  0  0  0  0  0  0  0  0  0
  -10.6679    3.8290  -25.8268 C   0  0  0  0  0  0  0  0  0  0  0  0
  -11.6777    3.9764  -24.7275 C   0  0  0  0  0  0  0  0  0  0  0  0
   -6.4600   -2.7431  -23.4745 C   0  0  0  0  0  0  0  0  0  0  0  0
   -6.3554   -3.5902  -22.2410 C   0  0  0  0  0  0  0  0  0  0  0  0
   -5.5458   -2.4569  -20.0478 C   0  0  0  0  0  0  0  0  0  0  0  0
   -5.2707   -3.3257  -21.2393 N   0  0  0  0  0  0  0  0  0  0  0  0
   -4.3461   -3.7366  -21.3683 H   0  0  0  0  0  0  0  0  0  0  0  0
   -5.0837   -3.9165  -22.0495 H   0  0  0  0  0  0  0  0  0  0  0  0
   -9.7496   -1.9169  -23.9002 C   0  0  0  0  0  0  0  0  0  0  0  0
  -10.4008   -2.5925  -25.0704 O   0  0  0  0  0  0  0  0  0  0  0  0
  -10.4921   -4.0890  -25.1170 C   0  0  0  0  0  0  0  0  0  0  0  0
  -10.0759   -4.8276  -26.3544 C   0  0  0  0  0  0  0  0  0  0  0  0
  -11.0214   -5.9396  -26.0088 F   0  0  0  0  0  0  0  0  0  0  0  0
   -9.1303   -3.7157  -26.7000 C   0  0  0  0  0  0  0  0  0  0  0  0
   -8.7140   -4.4543  -27.9374 O   0  0  0  0  0  0  0  0  0  0  0  0
   -9.6596   -5.5662  -27.5918 C   0  0  0  0  0  0  0  0  0  0  0  0
 30 31  1  0  0  0
 31 29  1  0  0  0
 29 28  1  0  0  0
 28  1  1  0  0  0
  1  2  1  0  0  0
  3  2  1  0  0  0
  3  4  1  0  0  0
  4  5  2  0  0  0
  4  6  1  0  0  0
  6 18  1  0  0  0
 18 19  2  0  0  0
 19 20  1  0  0  0
 20 21  2  0  0  0
 21 22  1  0  0  0
 22 23  2  0  0  0
 23 24  1  0  0  0
 24 25  2  0  0  0
 25 26  1  0  0  0
 26 27  2  0  0  0
  6  7  1  0  0  0
  7  8  1  0  0  0
  8 34  1  0  0  0
 34 35  1  0  0  0
 35 36  1  0  0  0
 36 37  1  0  0  0
 37 38  1  0  0  0
 37 39  1  0  0  0
 39 40  1  0  0  0
 40 41  1  0  0  0
  3  9  1  0  0  0
  9 10  2  0  0  0
 10 11  1  0  0  0
 11 12  1  0  0  0
 11 13  2  0  0  0
 13 14  1  0  0  0
 14 15  2  0  0  0
 15 16  1  0  0  0
 16 17  2  0  0  0
 16  1  1  0  0  0
  8  3  1  0  0  0
 41 37  1  0  0  0
 15  9  1  0  0  0
 27 18  1  0  0  0
 27 22  1  0  0  0
 31 32  1  0  0  0
 31 33  1  0  0  0
M  CHG 1  31   1
M  END
> <minimizedAffinity>
-7.45895

> <CNNscore>
0.1513255835

> <CNNaffinity>
6.0508623123

> <CNN_VS>
0.9156502485

> <CNNaffinity_variance>
0.1505358368

$$$$



 41 46  0  0  0  0  0  0  0  0999 V2000
  -11.5490    3.9547  -24.1071 N   0  0  0  0  0  0  0  0  0  0  0  0
  -10.1734    3.3631  -24.0188 C   0  0  0  0  0  0  0  0  0  0  0  0
  -10.0032    1.8989  -23.7408 C   0  0  0  0  0  0  0  0  0  0  0  0
   -9.6781    0.4598  -23.4705 C   0  0  0  0  0  0  0  0  0  0  0  0
  -10.2387   -0.5970  -23.2574 O   0  0  0  0  0  0  0  0  0  0  0  0
   -8.1852    0.3139  -23.4700 N   0  0  0  0  0  0  0  0  0  0  0  0
   -7.5876    1.6630  -23.7399 C   0  0  0  0  0  0  0  0  0  0  0  0
   -8.7112    2.6426  -23.9073 C   0  0  0  0  0  0  0  0  0  0  0  0
  -11.2085    1.0264  -23.5512 C   0  0  0  0  0  0  0  0  0  0  0  0
  -11.0383   -0.4377  -23.2733 C   0  0  0  0  0  0  0  0  0  0  0  0
  -12.2435   -1.3102  -23.0836 C   0  0  0  0  0  0  0  0  0  0  0  0
  -12.0733   -2.7744  -22.8057 Cl  0  0  0  0  0  0  0  0  0  0  0  0
  -13.6191   -0.7186  -23.1719 C   0  0  0  0  0  0  0  0  0  0  0  0
  -13.7894    0.7456  -23.4499 C   0  0  0  0  0  0  0  0  0  0  0  0
  -12.5841    1.6180  -23.6395 C   0  0  0  0  0  0  0  0  0  0  0  0
  -12.7543    3.0823  -23.9174 C   0  0  0  0  0  0  0  0  0  0  0  0
  -14.1298    3.6739  -24.0058 O   0  0  0  0  0  0  0  0  0  0  0  0
   -7.4236   -0.9577  -23.2399 C   0  0  0  0  0  0  0  0  0  0  0  0
   -7.2267   -1.9284  -24.3664 C   0  0  0  0  0  0  0  0  0  0  0  0
   -6.4652   -3.2000  -24.1363 N   0  0  0  0  0  0  0  0  0  0  0  0
   -5.9005   -3.5010  -22.7796 C   0  0  0  0  0  0  0  0  0  0  0  0
   -6.0974   -2.5303  -21.6531 C   0  0  0  0  0  0  0  0  0  0  0  0
   -5.5327   -2.8313  -20.2964 C   0  0  0  0  0  0  0  0  0  0  0  0
   -5.7296   -1.8606  -19.1699 C   0  0  0  0  0  0  0  0  0  0  0  0
   -6.4912   -0.5890  -19.4000 C   0  0  0  0  0  0  0  0  0  0  0  0
   -7.0558   -0.2880  -20.7567 C   0  0  0  0  0  0  0  0  0  0  0  0
   -6.8590   -1.2587  -21.8832 C   0  0  0  0  0  0  0  0  0  0  0  0
  -11.7192    5.4189  -24.3850 C   0  0  0  0  0  0  0  0  0  0  0  0
  -12.1176    5.8808  -25.7554 C   0  0  0  0  0  0  0  0  0  0  0  0
  -13.9709    6.4426  -27.4874 C   0  0  0  0  0  0  0  0  0  0  0  0
  -13.5676    6.0634  -26.0933 N   0  0  0  0  0  0  0  0  0  0  0  0
  -14.2794    5.9296  -25.3750 H   0  0  0  0  0  0  0  0  0  0  0  0
  -13.2934    5.8055  -25.1453 H   0  0  0  0  0  0  0  0  0  0  0  0
   -8.5679    4.1084  -24.1914 C   0  0  0  0  0  0  0  0  0  0  0  0
   -7.2480    4.6594  -24.6431 O   0  0  0  0  0  0  0  0  0  0  0  0
   -6.2732    5.1925  -23.6354 C   0  0  0  0  0  0  0  0  0  0  0  0
   -5.3653    4.2520  -22.8997 C   0  0  0  0  0  0  0  0  0  0  0  0
   -6.3706    4.1485  -21.7913 F   0  0  0  0  0  0  0  0  0  0  0  0
   -4.3599    4.3555  -24.0081 C   0  0  0  0  0  0  0  0  0  0  0  0
   -3.4520    3.4150  -23.2724 O   0  0  0  0  0  0  0  0  0  0  0  0
   -4.4574    3.3115  -22.1640 C   0  0  0  0  0  0  0  0  0  0  0  0
 30 31  1  0  0  0
 31 29  1  0  0  0
 29 28  1  0  0  0
 28  1  1  0  0  0
  1  2  1  0  0  0
  3  2  1  0  0  0
  3  4  1  0  0  0
  4  5  2  0  0  0
  4  6  1  0  0  0
  6 18  1  0  0  0
 18 19  2  0  0  0
 19 20  1  0  0  0
 20 21  2  0  0  0
 21 22  1  0  0  0
 22 23  2  0  0  0
 23 24  1  0  0  0
 24 25  2  0  0  0
 25 26  1  0  0  0
 26 27  2  0  0  0
  6  7  1  0  0  0
  7  8  1  0  0  0
  8 34  1  0  0  0
 34 35  1  0  0  0
 35 36  1  0  0  0
 36 37  1  0  0  0
 37 38  1  0  0  0
 37 39  1  0  0  0
 39 40  1  0  0  0
 40 41  1  0  0  0
  3  9  1  0  0  0
  9 10  2  0  0  0
 10 11  1  0  0  0
 11 12  1  0  0  0
 11 13  2  0  0  0
 13 14  1  0  0  0
 14 15  2  0  0  0
 15 16  1  0  0  0
 16 17  2  0  0  0
 16  1  1  0  0  0
  8  3  1  0  0  0
 41 37  1  0  0  0
 15  9  1  0  0  0
 27 18  1  0  0  0
 27 22  1  0  0  0
 31 32  1  0  0  0
 31 33  1  0  0  0
M  CHG 1  31   1
M  END
> <minimizedAffinity>
-7.21711

> <CNNscore>
0.1461886615

> <CNNaffinity>
6.2071723938

> <CNN_VS>
0.9074182510

> <CNNaffinity_variance>
0.2666797042

$$$$



 41 46  0  0  0  0  0  0  0  0999 V2000
   -3.7563    3.2796  -22.1218 N   0  0  0  0  0  0  0  0  0  0  0  0
   -4.9155    2.9239  -23.0048 C   0  0  0  0  0  0  0  0  0  0  0  0
   -5.8837    1.8602  -22.5793 C   0  0  0  0  0  0  0  0  0  0  0  0
   -6.9282    0.8237  -22.2884 C   0  0  0  0  0  0  0  0  0  0  0  0
   -7.2254    0.0172  -21.4295 O   0  0  0  0  0  0  0  0  0  0  0  0
   -7.8920    0.8015  -23.4376 N   0  0  0  0  0  0  0  0  0  0  0  0
   -7.4432    1.8243  -24.4388 C   0  0  0  0  0  0  0  0  0  0  0  0
   -6.2020    2.4787  -23.9083 C   0  0  0  0  0  0  0  0  0  0  0  0
   -5.6928    1.1522  -21.2707 C   0  0  0  0  0  0  0  0  0  0  0  0
   -6.6611    0.0886  -20.8452 C   0  0  0  0  0  0  0  0  0  0  0  0
   -6.4701   -0.6194  -19.5367 C   0  0  0  0  0  0  0  0  0  0  0  0
   -7.4384   -1.6831  -19.1111 Cl  0  0  0  0  0  0  0  0  0  0  0  0
   -5.3109   -0.2637  -18.6537 C   0  0  0  0  0  0  0  0  0  0  0  0
   -4.3427    0.7999  -19.0792 C   0  0  0  0  0  0  0  0  0  0  0  0
   -4.5336    1.5079  -20.3877 C   0  0  0  0  0  0  0  0  0  0  0  0
   -3.5653    2.5716  -20.8132 C   0  0  0  0  0  0  0  0  0  0  0  0
   -2.4061    2.9273  -19.9302 O   0  0  0  0  0  0  0  0  0  0  0  0
   -9.0936   -0.0875  -23.5635 C   0  0  0  0  0  0  0  0  0  0  0  0
   -8.9175   -1.5690  -23.7191 C   0  0  0  0  0  0  0  0  0  0  0  0
  -10.1191   -2.4580  -23.8450 N   0  0  0  0  0  0  0  0  0  0  0  0
  -11.4967   -1.8655  -23.8153 C   0  0  0  0  0  0  0  0  0  0  0  0
  -11.6728   -0.3840  -23.6596 C   0  0  0  0  0  0  0  0  0  0  0  0
  -13.0506    0.2085  -23.6299 C   0  0  0  0  0  0  0  0  0  0  0  0
  -13.2266    1.6900  -23.4743 C   0  0  0  0  0  0  0  0  0  0  0  0
  -12.0250    2.5790  -23.3484 C   0  0  0  0  0  0  0  0  0  0  0  0
  -10.6473    1.9865  -23.3781 C   0  0  0  0  0  0  0  0  0  0  0  0
  -10.4712    0.5050  -23.5337 C   0  0  0  0  0  0  0  0  0  0  0  0
   -2.7880    4.3433  -22.5473 C   0  0  0  0  0  0  0  0  0  0  0  0
   -2.9788    5.7584  -22.0878 C   0  0  0  0  0  0  0  0  0  0  0  0
   -0.5447    5.8177  -21.1814 C   0  0  0  0  0  0  0  0  0  0  0  0
   -1.9050    6.4399  -21.2925 N   0  0  0  0  0  0  0  0  0  0  0  0
   -2.0999    7.3265  -20.8273 H   0  0  0  0  0  0  0  0  0  0  0  0
   -2.8300    6.8630  -21.3681 H   0  0  0  0  0  0  0  0  0  0  0  0
   -5.4170    3.5614  -24.5876 C   0  0  0  0  0  0  0  0  0  0  0  0
   -6.1243    4.7527  -25.1624 O   0  0  0  0  0  0  0  0  0  0  0  0
   -6.7300    5.7777  -24.2500 C   0  0  0  0  0  0  0  0  0  0  0  0
   -8.1788    5.6836  -23.8730 C   0  0  0  0  0  0  0  0  0  0  0  0
   -7.8298    6.0086  -22.4508 F   0  0  0  0  0  0  0  0  0  0  0  0
   -8.5277    5.3586  -25.2952 C   0  0  0  0  0  0  0  0  0  0  0  0
   -9.9765    5.2645  -24.9182 O   0  0  0  0  0  0  0  0  0  0  0  0
   -9.6276    5.5895  -23.4960 C   0  0  0  0  0  0  0  0  0  0  0  0
 30 31  1  0  0  0
 31 29  1  0  0  0
 29 28  1  0  0  0
 28  1  1  0  0  0
  1  2  1  0  0  0
  3  2  1  0  0  0
  3  4  1  0  0  0
  4  5  2  0  0  0
  4  6  1  0  0  0
  6 18  1  0  0  0
 18 19  2  0  0  0
 19 20  1  0  0  0
 20 21  2  0  0  0
 21 22  1  0  0  0
 22 23  2  0  0  0
 23 24  1  0  0  0
 24 25  2  0  0  0
 25 26  1  0  0  0
 26 27  2  0  0  0
  6  7  1  0  0  0
  7  8  1  0  0  0
  8 34  1  0  0  0
 34 35  1  0  0  0
 35 36  1  0  0  0
 36 37  1  0  0  0
 37 38  1  0  0  0
 37 39  1  0  0  0
 39 40  1  0  0  0
 40 41  1  0  0  0
  3  9  1  0  0  0
  9 10  2  0  0  0
 10 11  1  0  0  0
 11 12  1  0  0  0
 11 13  2  0  0  0
 13 14  1  0  0  0
 14 15  2  0  0  0
 15 16  1  0  0  0
 16 17  2  0  0  0
 16  1  1  0  0  0
  8  3  1  0  0  0
 41 37  1  0  0  0
 15  9  1  0  0  0
 27 18  1  0  0  0
 27 22  1  0  0  0
 31 32  1  0  0  0
 31 33  1  0  0  0
M  CHG 1  31   1
M  END
> <minimizedAffinity>
-7.53757

> <CNNscore>
0.1438601315

> <CNNaffinity>
5.6153783798

> <CNN_VS>
0.8078290820

> <CNNaffinity_variance>
0.7110124826

$$$$



 41 46  0  0  0  0  0  0  0  0999 V2000
   -3.7692    2.7881  -21.9827 N   0  0  0  0  0  0  0  0  0  0  0  0
   -4.8690    2.3385  -22.8984 C   0  0  0  0  0  0  0  0  0  0  0  0
   -5.8645    1.3187  -22.4307 C   0  0  0  0  0  0  0  0  0  0  0  0
   -6.9273    0.3118  -22.1044 C   0  0  0  0  0  0  0  0  0  0  0  0
   -7.2811   -0.4047  -21.1890 O   0  0  0  0  0  0  0  0  0  0  0  0
   -7.8142    0.1679  -23.3055 N   0  0  0  0  0  0  0  0  0  0  0  0
   -7.2995    1.0860  -24.3743 C   0  0  0  0  0  0  0  0  0  0  0  0
   -6.0946    1.7972  -23.8336 C   0  0  0  0  0  0  0  0  0  0  0  0
   -5.7604    0.7484  -21.0472 C   0  0  0  0  0  0  0  0  0  0  0  0
   -6.7560   -0.2714  -20.5796 C   0  0  0  0  0  0  0  0  0  0  0  0
   -6.6518   -0.8417  -19.1961 C   0  0  0  0  0  0  0  0  0  0  0  0
   -7.6474   -1.8616  -18.7284 Cl  0  0  0  0  0  0  0  0  0  0  0  0
   -5.5521   -0.3922  -18.2804 C   0  0  0  0  0  0  0  0  0  0  0  0
   -4.5565    0.6276  -18.7481 C   0  0  0  0  0  0  0  0  0  0  0  0
   -4.6607    1.1979  -20.1315 C   0  0  0  0  0  0  0  0  0  0  0  0
   -3.6651    2.2178  -20.5993 C   0  0  0  0  0  0  0  0  0  0  0  0
   -2.5654    2.6673  -19.6836 O   0  0  0  0  0  0  0  0  0  0  0  0
   -9.0064   -0.7354  -23.4181 C   0  0  0  0  0  0  0  0  0  0  0  0
   -8.8167   -2.2212  -23.4987 C   0  0  0  0  0  0  0  0  0  0  0  0
  -10.0089   -3.1245  -23.6113 N   0  0  0  0  0  0  0  0  0  0  0  0
  -11.3908   -2.5420  -23.6433 C   0  0  0  0  0  0  0  0  0  0  0  0
  -11.5805   -1.0562  -23.5628 C   0  0  0  0  0  0  0  0  0  0  0  0
  -12.9625   -0.4737  -23.5948 C   0  0  0  0  0  0  0  0  0  0  0  0
  -13.1521    1.0121  -23.5143 C   0  0  0  0  0  0  0  0  0  0  0  0
  -11.9599    1.9154  -23.4017 C   0  0  0  0  0  0  0  0  0  0  0  0
  -10.5780    1.3329  -23.3696 C   0  0  0  0  0  0  0  0  0  0  0  0
  -10.3883   -0.1529  -23.4502 C   0  0  0  0  0  0  0  0  0  0  0  0
   -2.7737    3.8079  -22.4505 C   0  0  0  0  0  0  0  0  0  0  0  0
   -3.1046    5.2690  -22.3744 C   0  0  0  0  0  0  0  0  0  0  0  0
   -0.9537    6.3424  -21.3888 C   0  0  0  0  0  0  0  0  0  0  0  0
   -2.4389    6.1363  -21.3475 N   0  0  0  0  0  0  0  0  0  0  0  0
   -2.9961    6.5860  -20.6211 H   0  0  0  0  0  0  0  0  0  0  0  0
   -3.4488    5.9962  -21.3194 H   0  0  0  0  0  0  0  0  0  0  0  0
   -5.2653    2.8093  -24.5671 C   0  0  0  0  0  0  0  0  0  0  0  0
   -5.2118    2.7907  -26.0660 O   0  0  0  0  0  0  0  0  0  0  0  0
   -5.7309    3.9597  -26.8496 C   0  0  0  0  0  0  0  0  0  0  0  0
   -5.2549    5.3463  -26.5321 C   0  0  0  0  0  0  0  0  0  0  0  0
   -6.5431    5.6245  -25.8158 F   0  0  0  0  0  0  0  0  0  0  0  0
   -3.9667    5.0681  -27.2484 C   0  0  0  0  0  0  0  0  0  0  0  0
   -3.4907    6.4546  -26.9310 O   0  0  0  0  0  0  0  0  0  0  0  0
   -4.7789    6.7329  -26.2147 C   0  0  0  0  0  0  0  0  0  0  0  0
 30 31  1  0  0  0
 31 29  1  0  0  0
 29 28  1  0  0  0
 28  1  1  0  0  0
  1  2  1  0  0  0
  3  2  1  0  0  0
  3  4  1  0  0  0
  4  5  2  0  0  0
  4  6  1  0  0  0
  6 18  1  0  0  0
 18 19  2  0  0  0
 19 20  1  0  0  0
 20 21  2  0  0  0
 21 22  1  0  0  0
 22 23  2  0  0  0
 23 24  1  0  0  0
 24 25  2  0  0  0
 25 26  1  0  0  0
 26 27  2  0  0  0
  6  7  1  0  0  0
  7  8  1  0  0  0
  8 34  1  0  0  0
 34 35  1  0  0  0
 35 36  1  0  0  0
 36 37  1  0  0  0
 37 38  1  0  0  0
 37 39  1  0  0  0
 39 40  1  0  0  0
 40 41  1  0  0  0
  3  9  1  0  0  0
  9 10  2  0  0  0
 10 11  1  0  0  0
 11 12  1  0  0  0
 11 13  2  0  0  0
 13 14  1  0  0  0
 14 15  2  0  0  0
 15 16  1  0  0  0
 16 17  2  0  0  0
 16  1  1  0  0  0
  8  3  1  0  0  0
 41 37  1  0  0  0
 15  9  1  0  0  0
 27 18  1  0  0  0
 27 22  1  0  0  0
 31 32  1  0  0  0
 31 33  1  0  0  0
M  CHG 1  31   1
M  END
> <minimizedAffinity>
-6.81641

> <CNNscore>
0.1325144917

> <CNNaffinity>
5.7613654137

> <CNN_VS>
0.7634643912

> <CNNaffinity_variance>
0.3010403216

$$$$
