


 22 25  0  0  0  0  0  0  0  0999 V2000
   10.6727   -3.0739   25.8547 C   0  0  0  0  0  0  0  0  0  0  0  0
   10.2010   -2.0833   24.8317 C   0  0  0  0  0  0  0  0  0  0  0  0
   10.9464   -0.7967   24.6341 C   0  0  0  0  0  0  0  0  0  0  0  0
   10.4747    0.1938   23.6112 C   0  0  0  0  0  0  0  0  0  0  0  0
    9.2577   -0.1023   22.7859 C   0  0  0  0  0  0  0  0  0  0  0  0
    8.5608    0.6766   21.7100 C   0  0  0  0  0  0  0  0  0  0  0  0
    8.9684    2.0242   21.1923 O   0  0  0  0  0  0  0  0  0  0  0  0
    7.3847   -0.1286   21.2426 N   0  0  0  0  0  0  0  0  0  0  0  0
    7.3548   -1.4052   22.0297 C   0  0  0  0  0  0  0  0  0  0  0  0
    6.3447   -2.5049   21.8878 O   0  0  0  0  0  0  0  0  0  0  0  0
    8.5124   -1.3889   22.9835 N   0  0  0  0  0  0  0  0  0  0  0  0
    8.9840   -2.3794   24.0064 C   0  0  0  0  0  0  0  0  0  0  0  0
    6.4098    0.2723   20.1755 C   0  0  0  0  0  0  0  0  0  0  0  0
    6.4625   -0.3824   18.8270 C   0  0  0  0  0  0  0  0  0  0  0  0
    5.4876    0.0185   17.7599 N   0  0  0  0  0  0  0  0  0  0  0  0
    4.4599    1.0742   18.0413 C   0  0  0  0  0  0  0  0  0  0  0  0
    4.4071    1.7290   19.3898 C   0  0  0  0  0  0  0  0  0  0  0  0
    3.3793    2.7848   19.6712 C   0  0  0  0  0  0  0  0  0  0  0  0
    3.3266    3.4395   21.0197 C   0  0  0  0  0  0  0  0  0  0  0  0
    4.3015    3.0386   22.0868 C   0  0  0  0  0  0  0  0  0  0  0  0
    5.3293    1.9829   21.8054 C   0  0  0  0  0  0  0  0  0  0  0  0
    5.3820    1.3281   20.4569 C   0  0  0  0  0  0  0  0  0  0  0  0
  2  1  1  0  0  0
  2  3  1  0  0  0
  3  4  1  0  0  0
  4  5  1  0  0  0
  5  6  2  0  0  0
  6  7  1  0  0  0
  6  8  1  0  0  0
  8 13  1  0  0  0
 13 14  2  0  0  0
 14 15  1  0  0  0
 15 16  2  0  0  0
 16 17  1  0  0  0
 17 18  2  0  0  0
 18 19  1  0  0  0
 19 20  2  0  0  0
 20 21  1  0  0  0
 21 22  2  0  0  0
  8  9  1  0  0  0
  9 10  2  0  0  0
  9 11  1  0  0  0
 11 12  1  0  0  0
 12  2  1  0  0  0
 11  5  1  0  0  0
 22 13  1  0  0  0
 22 17  1  0  0  0
M  CHG 1   7  -1
M  END
> <minimizedAffinity>
-7.21589

> <CNNscore>
0.5400187373

> <CNNaffinity>
5.5240902901

> <CNN_VS>
2.9831123352

> <CNNaffinity_variance>
0.2655414641

$$$$



 22 25  0  0  0  0  0  0  0  0999 V2000
    4.4510   -7.1742   24.7322 C   0  0  0  0  0  0  0  0  0  0  0  0
    5.2374   -6.0179   24.1893 C   0  0  0  0  0  0  0  0  0  0  0  0
    4.6426   -5.1376   23.1304 C   0  0  0  0  0  0  0  0  0  0  0  0
    5.4289   -3.9813   22.5876 C   0  0  0  0  0  0  0  0  0  0  0  0
    6.8100   -3.7054   23.1037 C   0  0  0  0  0  0  0  0  0  0  0  0
    7.8164   -2.6469   22.7618 C   0  0  0  0  0  0  0  0  0  0  0  0
    7.6374   -1.5542   21.7499 O   0  0  0  0  0  0  0  0  0  0  0  0
    9.0332   -2.8731   23.6093 N   0  0  0  0  0  0  0  0  0  0  0  0
    8.7788   -4.0713   24.4750 C   0  0  0  0  0  0  0  0  0  0  0  0
    9.7311   -4.6531   25.4773 O   0  0  0  0  0  0  0  0  0  0  0  0
    7.4048   -4.5857   24.1625 N   0  0  0  0  0  0  0  0  0  0  0  0
    6.6185   -5.7420   24.7054 C   0  0  0  0  0  0  0  0  0  0  0  0
   10.2846   -2.0462   23.5939 C   0  0  0  0  0  0  0  0  0  0  0  0
   10.4555   -0.9635   22.5700 C   0  0  0  0  0  0  0  0  0  0  0  0
   11.7069   -0.1366   22.5545 N   0  0  0  0  0  0  0  0  0  0  0  0
   12.7874   -0.3924   23.5630 C   0  0  0  0  0  0  0  0  0  0  0  0
   12.6165   -1.4752   24.5869 C   0  0  0  0  0  0  0  0  0  0  0  0
   13.6970   -1.7310   25.5954 C   0  0  0  0  0  0  0  0  0  0  0  0
   13.5261   -2.8138   26.6193 C   0  0  0  0  0  0  0  0  0  0  0  0
   12.2747   -3.6407   26.6347 C   0  0  0  0  0  0  0  0  0  0  0  0
   11.1942   -3.3848   25.6263 C   0  0  0  0  0  0  0  0  0  0  0  0
   11.3651   -2.3021   24.6024 C   0  0  0  0  0  0  0  0  0  0  0  0
  2  1  1  0  0  0
  2  3  1  0  0  0
  3  4  1  0  0  0
  4  5  1  0  0  0
  5  6  2  0  0  0
  6  7  1  0  0  0
  6  8  1  0  0  0
  8 13  1  0  0  0
 13 14  2  0  0  0
 14 15  1  0  0  0
 15 16  2  0  0  0
 16 17  1  0  0  0
 17 18  2  0  0  0
 18 19  1  0  0  0
 19 20  2  0  0  0
 20 21  1  0  0  0
 21 22  2  0  0  0
  8  9  1  0  0  0
  9 10  2  0  0  0
  9 11  1  0  0  0
 11 12  1  0  0  0
 12  2  1  0  0  0
 11  5  1  0  0  0
 22 13  1  0  0  0
 22 17  1  0  0  0
M  CHG 1   7  -1
M  END
> <minimizedAffinity>
-7.56297

> <CNNscore>
0.5362232327

> <CNNaffinity>
5.7842493057

> <CNN_VS>
3.1016488075

> <CNNaffinity_variance>
0.1945850849

$$$$



 22 25  0  0  0  0  0  0  0  0999 V2000
    2.3606   -2.7479   27.2913 C   0  0  0  0  0  0  0  0  0  0  0  0
    3.6978   -2.8884   26.6263 C   0  0  0  0  0  0  0  0  0  0  0  0
    4.0650   -4.1729   25.9442 C   0  0  0  0  0  0  0  0  0  0  0  0
    5.4022   -4.3134   25.2793 C   0  0  0  0  0  0  0  0  0  0  0  0
    6.3722   -3.1694   25.2965 C   0  0  0  0  0  0  0  0  0  0  0  0
    7.7525   -3.0153   24.7300 C   0  0  0  0  0  0  0  0  0  0  0  0
    8.5134   -4.0579   23.9657 O   0  0  0  0  0  0  0  0  0  0  0  0
    8.2385   -1.6356   25.0620 N   0  0  0  0  0  0  0  0  0  0  0  0
    7.1585   -0.9370   25.8337 C   0  0  0  0  0  0  0  0  0  0  0  0
    7.2209    0.4636   26.3669 O   0  0  0  0  0  0  0  0  0  0  0  0
    6.0050   -1.8849   25.9786 N   0  0  0  0  0  0  0  0  0  0  0  0
    4.6679   -1.7444   26.6435 C   0  0  0  0  0  0  0  0  0  0  0  0
    9.5706   -1.0562   24.6880 C   0  0  0  0  0  0  0  0  0  0  0  0
    9.6430    0.1206   23.7608 C   0  0  0  0  0  0  0  0  0  0  0  0
   10.9751    0.6999   23.3868 N   0  0  0  0  0  0  0  0  0  0  0  0
   12.2348    0.1025   23.9401 C   0  0  0  0  0  0  0  0  0  0  0  0
   12.1625   -1.0744   24.8674 C   0  0  0  0  0  0  0  0  0  0  0  0
   13.4222   -1.6719   25.4206 C   0  0  0  0  0  0  0  0  0  0  0  0
   13.3498   -2.8487   26.3479 C   0  0  0  0  0  0  0  0  0  0  0  0
   12.0177   -3.4280   26.7218 C   0  0  0  0  0  0  0  0  0  0  0  0
   10.7580   -2.8306   26.1686 C   0  0  0  0  0  0  0  0  0  0  0  0
   10.8304   -1.6538   25.2414 C   0  0  0  0  0  0  0  0  0  0  0  0
  2  1  1  0  0  0
  2  3  1  0  0  0
  3  4  1  0  0  0
  4  5  1  0  0  0
  5  6  2  0  0  0
  6  7  1  0  0  0
  6  8  1  0  0  0
  8 13  1  0  0  0
 13 14  2  0  0  0
 14 15  1  0  0  0
 15 16  2  0  0  0
 16 17  1  0  0  0
 17 18  2  0  0  0
 18 19  1  0  0  0
 19 20  2  0  0  0
 20 21  1  0  0  0
 21 22  2  0  0  0
  8  9  1  0  0  0
  9 10  2  0  0  0
  9 11  1  0  0  0
 11 12  1  0  0  0
 12  2  1  0  0  0
 11  5  1  0  0  0
 22 13  1  0  0  0
 22 17  1  0  0  0
M  CHG 1   7  -1
M  END
> <minimizedAffinity>
-6.37792

> <CNNscore>
0.5190697312

> <CNNaffinity>
5.6879801750

> <CNN_VS>
2.9524583817

> <CNNaffinity_variance>
0.4547311664

$$$$



 22 25  0  0  0  0  0  0  0  0999 V2000
   11.7962   -1.1732   25.6356 C   0  0  0  0  0  0  0  0  0  0  0  0
   10.5854   -1.3554   24.7690 C   0  0  0  0  0  0  0  0  0  0  0  0
    9.7256   -2.5742   24.9282 C   0  0  0  0  0  0  0  0  0  0  0  0
    8.5149   -2.7563   24.0616 C   0  0  0  0  0  0  0  0  0  0  0  0
    8.1641   -1.7198   23.0358 C   0  0  0  0  0  0  0  0  0  0  0  0
    7.0409   -1.6272   22.0459 C   0  0  0  0  0  0  0  0  0  0  0  0
    5.9446   -2.6339   21.8597 O   0  0  0  0  0  0  0  0  0  0  0  0
    7.2065   -0.3512   21.2748 N   0  0  0  0  0  0  0  0  0  0  0  0
    8.4320    0.3448   21.7883 C   0  0  0  0  0  0  0  0  0  0  0  0
    8.9712    1.6563   21.2992 O   0  0  0  0  0  0  0  0  0  0  0  0
    9.0238   -0.5010   22.8766 N   0  0  0  0  0  0  0  0  0  0  0  0
   10.2345   -0.3188   23.7432 C   0  0  0  0  0  0  0  0  0  0  0  0
    6.3049    0.1421   20.1822 C   0  0  0  0  0  0  0  0  0  0  0  0
    6.4255   -0.4229   18.7980 C   0  0  0  0  0  0  0  0  0  0  0  0
    5.5239    0.0704   17.7054 N   0  0  0  0  0  0  0  0  0  0  0  0
    4.5017    1.1287   17.9970 C   0  0  0  0  0  0  0  0  0  0  0  0
    4.3811    1.6937   19.3814 C   0  0  0  0  0  0  0  0  0  0  0  0
    3.3589    2.7520   19.6730 C   0  0  0  0  0  0  0  0  0  0  0  0
    3.2383    3.3170   21.0573 C   0  0  0  0  0  0  0  0  0  0  0  0
    4.1399    2.8237   22.1499 C   0  0  0  0  0  0  0  0  0  0  0  0
    5.1621    1.7654   21.8582 C   0  0  0  0  0  0  0  0  0  0  0  0
    5.2827    1.2004   20.4740 C   0  0  0  0  0  0  0  0  0  0  0  0
  2  1  1  0  0  0
  2  3  1  0  0  0
  3  4  1  0  0  0
  4  5  1  0  0  0
  5  6  2  0  0  0
  6  7  1  0  0  0
  6  8  1  0  0  0
  8 13  1  0  0  0
 13 14  2  0  0  0
 14 15  1  0  0  0
 15 16  2  0  0  0
 16 17  1  0  0  0
 17 18  2  0  0  0
 18 19  1  0  0  0
 19 20  2  0  0  0
 20 21  1  0  0  0
 21 22  2  0  0  0
  8  9  1  0  0  0
  9 10  2  0  0  0
  9 11  1  0  0  0
 11 12  1  0  0  0
 12  2  1  0  0  0
 11  5  1  0  0  0
 22 13  1  0  0  0
 22 17  1  0  0  0
M  CHG 1   7  -1
M  END
> <minimizedAffinity>
-7.15578

> <CNNscore>
0.5177311897

> <CNNaffinity>
5.4717416763

> <CNN_VS>
2.8328912258

> <CNNaffinity_variance>
0.2054428309

$$$$



 22 25  0  0  0  0  0  0  0  0999 V2000
    3.1286   -6.4042   22.8313 C   0  0  0  0  0  0  0  0  0  0  0  0
    4.5138   -6.0120   23.2528 C   0  0  0  0  0  0  0  0  0  0  0  0
    5.3094   -6.9153   24.1479 C   0  0  0  0  0  0  0  0  0  0  0  0
    6.6944   -6.5232   24.5694 C   0  0  0  0  0  0  0  0  0  0  0  0
    7.2840   -5.2278   24.0959 C   0  0  0  0  0  0  0  0  0  0  0  0
    8.6141   -4.5802   24.3439 C   0  0  0  0  0  0  0  0  0  0  0  0
    9.7230   -5.1383   25.1859 O   0  0  0  0  0  0  0  0  0  0  0  0
    8.6406   -3.2767   23.6022 N   0  0  0  0  0  0  0  0  0  0  0  0
    7.3269   -3.1187   22.8957 C   0  0  0  0  0  0  0  0  0  0  0  0
    6.9225   -1.9585   22.0352 O   0  0  0  0  0  0  0  0  0  0  0  0
    6.4884   -4.3245   23.2008 N   0  0  0  0  0  0  0  0  0  0  0  0
    5.1033   -4.7166   22.7793 C   0  0  0  0  0  0  0  0  0  0  0  0
    9.7807   -2.3024   23.5721 C   0  0  0  0  0  0  0  0  0  0  0  0
    9.8271   -1.2345   22.5198 C   0  0  0  0  0  0  0  0  0  0  0  0
   10.9672   -0.2602   22.4898 N   0  0  0  0  0  0  0  0  0  0  0  0
   12.0609   -0.3538   23.5121 C   0  0  0  0  0  0  0  0  0  0  0  0
   12.0145   -1.4217   24.5645 C   0  0  0  0  0  0  0  0  0  0  0  0
   13.1081   -1.5153   25.5867 C   0  0  0  0  0  0  0  0  0  0  0  0
   13.0617   -2.5832   26.6390 C   0  0  0  0  0  0  0  0  0  0  0  0
   11.9217   -3.5575   26.6691 C   0  0  0  0  0  0  0  0  0  0  0  0
   10.8280   -3.4639   25.6468 C   0  0  0  0  0  0  0  0  0  0  0  0
   10.8744   -2.3960   24.5945 C   0  0  0  0  0  0  0  0  0  0  0  0
  2  1  1  0  0  0
  2  3  1  0  0  0
  3  4  1  0  0  0
  4  5  1  0  0  0
  5  6  2  0  0  0
  6  7  1  0  0  0
  6  8  1  0  0  0
  8 13  1  0  0  0
 13 14  2  0  0  0
 14 15  1  0  0  0
 15 16  2  0  0  0
 16 17  1  0  0  0
 17 18  2  0  0  0
 18 19  1  0  0  0
 19 20  2  0  0  0
 20 21  1  0  0  0
 21 22  2  0  0  0
  8  9  1  0  0  0
  9 10  2  0  0  0
  9 11  1  0  0  0
 11 12  1  0  0  0
 12  2  1  0  0  0
 11  5  1  0  0  0
 22 13  1  0  0  0
 22 17  1  0  0  0
M  CHG 1   7  -1
M  END
> <minimizedAffinity>
-7.05439

> <CNNscore>
0.5118443966

> <CNNaffinity>
5.6473531723

> <CNN_VS>
2.8905661106

> <CNNaffinity_variance>
0.2132860720

$$$$



 22 25  0  0  0  0  0  0  0  0999 V2000
    3.1880   -5.6959   26.0247 C   0  0  0  0  0  0  0  0  0  0  0  0
    4.1098   -4.5128   26.0527 C   0  0  0  0  0  0  0  0  0  0  0  0
    3.7083   -3.2664   26.7843 C   0  0  0  0  0  0  0  0  0  0  0  0
    4.6299   -2.0833   26.8124 C   0  0  0  0  0  0  0  0  0  0  0  0
    5.9531   -2.1467   26.1088 C   0  0  0  0  0  0  0  0  0  0  0  0
    7.0618   -1.1467   25.9639 C   0  0  0  0  0  0  0  0  0  0  0  0
    7.0804    0.2385   26.5392 O   0  0  0  0  0  0  0  0  0  0  0  0
    8.1485   -1.7750   25.1428 N   0  0  0  0  0  0  0  0  0  0  0  0
    7.7114   -3.1634   24.7802 C   0  0  0  0  0  0  0  0  0  0  0  0
    8.4938   -4.1490   23.9639 O   0  0  0  0  0  0  0  0  0  0  0  0
    6.3547   -3.3931   25.3772 N   0  0  0  0  0  0  0  0  0  0  0  0
    5.4330   -4.5761   25.3492 C   0  0  0  0  0  0  0  0  0  0  0  0
    9.4446   -1.1285   24.7528 C   0  0  0  0  0  0  0  0  0  0  0  0
    9.4432    0.0715   23.8529 C   0  0  0  0  0  0  0  0  0  0  0  0
   10.7394    0.7180   23.4629 N   0  0  0  0  0  0  0  0  0  0  0  0
   12.0369    0.1644   23.9727 C   0  0  0  0  0  0  0  0  0  0  0  0
   12.0383   -1.0357   24.8726 C   0  0  0  0  0  0  0  0  0  0  0  0
   13.3358   -1.5893   25.3824 C   0  0  0  0  0  0  0  0  0  0  0  0
   13.3372   -2.7894   26.2822 C   0  0  0  0  0  0  0  0  0  0  0  0
   12.0410   -3.4359   26.6723 C   0  0  0  0  0  0  0  0  0  0  0  0
   10.7435   -2.8823   26.1625 C   0  0  0  0  0  0  0  0  0  0  0  0
   10.7422   -1.6822   25.2626 C   0  0  0  0  0  0  0  0  0  0  0  0
  2  1  1  0  0  0
  2  3  1  0  0  0
  3  4  1  0  0  0
  4  5  1  0  0  0
  5  6  2  0  0  0
  6  7  1  0  0  0
  6  8  1  0  0  0
  8 13  1  0  0  0
 13 14  2  0  0  0
 14 15  1  0  0  0
 15 16  2  0  0  0
 16 17  1  0  0  0
 17 18  2  0  0  0
 18 19  1  0  0  0
 19 20  2  0  0  0
 20 21  1  0  0  0
 21 22  2  0  0  0
  8  9  1  0  0  0
  9 10  2  0  0  0
  9 11  1  0  0  0
 11 12  1  0  0  0
 12  2  1  0  0  0
 11  5  1  0  0  0
 22 13  1  0  0  0
 22 17  1  0  0  0
M  CHG 1   7  -1
M  END
> <minimizedAffinity>
-6.46886

> <CNNscore>
0.4623068571

> <CNNaffinity>
5.6664361954

> <CNN_VS>
2.6196322441

> <CNNaffinity_variance>
0.4231046736

$$$$



 22 25  0  0  0  0  0  0  0  0999 V2000
    1.3820    3.6494   20.4932 C   0  0  0  0  0  0  0  0  0  0  0  0
    2.6324    2.8519   20.2676 C   0  0  0  0  0  0  0  0  0  0  0  0
    2.9654    2.3520   18.8932 C   0  0  0  0  0  0  0  0  0  0  0  0
    4.2156    1.5546   18.6676 C   0  0  0  0  0  0  0  0  0  0  0  0
    5.1329    1.2571   19.8165 C   0  0  0  0  0  0  0  0  0  0  0  0
    6.4261    0.5014   19.8988 C   0  0  0  0  0  0  0  0  0  0  0  0
    7.1294   -0.1694   18.7563 O   0  0  0  0  0  0  0  0  0  0  0  0
    6.8923    0.5344   21.3241 N   0  0  0  0  0  0  0  0  0  0  0  0
    5.8873    1.3104   22.1227 C   0  0  0  0  0  0  0  0  0  0  0  0
    5.9574    1.5906   23.5947 O   0  0  0  0  0  0  0  0  0  0  0  0
    4.8000    1.7571   21.1910 N   0  0  0  0  0  0  0  0  0  0  0  0
    3.5497    2.5545   21.4165 C   0  0  0  0  0  0  0  0  0  0  0  0
    8.1438   -0.0978   21.8572 C   0  0  0  0  0  0  0  0  0  0  0  0
    8.2592   -1.5917   21.9252 C   0  0  0  0  0  0  0  0  0  0  0  0
    9.5107   -2.2239   22.4583 N   0  0  0  0  0  0  0  0  0  0  0  0
   10.6468   -1.3620   22.9234 C   0  0  0  0  0  0  0  0  0  0  0  0
   10.5315    0.1321   22.8555 C   0  0  0  0  0  0  0  0  0  0  0  0
   11.6676    0.9939   23.3206 C   0  0  0  0  0  0  0  0  0  0  0  0
   11.5522    2.4879   23.2526 C   0  0  0  0  0  0  0  0  0  0  0  0
   10.3007    3.1200   22.7195 C   0  0  0  0  0  0  0  0  0  0  0  0
    9.1646    2.2582   22.2544 C   0  0  0  0  0  0  0  0  0  0  0  0
    9.2800    0.7642   22.3224 C   0  0  0  0  0  0  0  0  0  0  0  0
  2  1  1  0  0  0
  2  3  1  0  0  0
  3  4  1  0  0  0
  4  5  1  0  0  0
  5  6  2  0  0  0
  6  7  1  0  0  0
  6  8  1  0  0  0
  8 13  1  0  0  0
 13 14  2  0  0  0
 14 15  1  0  0  0
 15 16  2  0  0  0
 16 17  1  0  0  0
 17 18  2  0  0  0
 18 19  1  0  0  0
 19 20  2  0  0  0
 20 21  1  0  0  0
 21 22  2  0  0  0
  8  9  1  0  0  0
  9 10  2  0  0  0
  9 11  1  0  0  0
 11 12  1  0  0  0
 12  2  1  0  0  0
 11  5  1  0  0  0
 22 13  1  0  0  0
 22 17  1  0  0  0
M  CHG 1   7  -1
M  END
> <minimizedAffinity>
-7.15302

> <CNNscore>
0.4459064007

> <CNNaffinity>
5.4151315689

> <CNN_VS>
2.4146418571

> <CNNaffinity_variance>
0.1428731829

$$$$



 22 25  0  0  0  0  0  0  0  0999 V2000
   10.5969    7.1584   22.6232 C   0  0  0  0  0  0  0  0  0  0  0  0
   10.9022    5.6897   22.6274 C   0  0  0  0  0  0  0  0  0  0  0  0
   12.2378    5.2000   22.1515 C   0  0  0  0  0  0  0  0  0  0  0  0
   12.5431    3.7315   22.1556 C   0  0  0  0  0  0  0  0  0  0  0  0
   11.5129    2.7526   22.6357 C   0  0  0  0  0  0  0  0  0  0  0  0
   11.5276    1.2574   22.7545 C   0  0  0  0  0  0  0  0  0  0  0  0
   12.6685    0.3551   22.3883 O   0  0  0  0  0  0  0  0  0  0  0  0
   10.2012    0.8230   23.3039 N   0  0  0  0  0  0  0  0  0  0  0  0
    9.3667    2.0498   23.5246 C   0  0  0  0  0  0  0  0  0  0  0  0
    7.9672    2.0789   24.0636 O   0  0  0  0  0  0  0  0  0  0  0  0
   10.1774    3.2423   23.1116 N   0  0  0  0  0  0  0  0  0  0  0  0
    9.8720    4.7109   23.1075 C   0  0  0  0  0  0  0  0  0  0  0  0
    9.7827   -0.5901   23.5834 C   0  0  0  0  0  0  0  0  0  0  0  0
    8.5592   -1.1543   22.9242 C   0  0  0  0  0  0  0  0  0  0  0  0
    8.1407   -2.5673   23.2037 N   0  0  0  0  0  0  0  0  0  0  0  0
    8.9457   -3.4162   24.1426 C   0  0  0  0  0  0  0  0  0  0  0  0
   10.1693   -2.8519   24.8019 C   0  0  0  0  0  0  0  0  0  0  0  0
   10.9743   -3.7008   25.7407 C   0  0  0  0  0  0  0  0  0  0  0  0
   12.1978   -3.1365   26.3999 C   0  0  0  0  0  0  0  0  0  0  0  0
   12.6163   -1.7235   26.1203 C   0  0  0  0  0  0  0  0  0  0  0  0
   11.8113   -0.8747   25.1815 C   0  0  0  0  0  0  0  0  0  0  0  0
   10.5878   -1.4389   24.5223 C   0  0  0  0  0  0  0  0  0  0  0  0
  2  1  1  0  0  0
  2  3  1  0  0  0
  3  4  1  0  0  0
  4  5  1  0  0  0
  5  6  2  0  0  0
  6  7  1  0  0  0
  6  8  1  0  0  0
  8 13  1  0  0  0
 13 14  2  0  0  0
 14 15  1  0  0  0
 15 16  2  0  0  0
 16 17  1  0  0  0
 17 18  2  0  0  0
 18 19  1  0  0  0
 19 20  2  0  0  0
 20 21  1  0  0  0
 21 22  2  0  0  0
  8  9  1  0  0  0
  9 10  2  0  0  0
  9 11  1  0  0  0
 11 12  1  0  0  0
 12  2  1  0  0  0
 11  5  1  0  0  0
 22 13  1  0  0  0
 22 17  1  0  0  0
M  CHG 1   7  -1
M  END
> <minimizedAffinity>
-7.15649

> <CNNscore>
0.3731391728

> <CNNaffinity>
5.5292601585

> <CNN_VS>
2.0631835461

> <CNNaffinity_variance>
0.1346572340

$$$$



 22 25  0  0  0  0  0  0  0  0999 V2000
    0.9303    3.1358   20.4998 C   0  0  0  0  0  0  0  0  0  0  0  0
    2.2387    2.4284   20.3057 C   0  0  0  0  0  0  0  0  0  0  0  0
    2.8073    2.2679   18.9270 C   0  0  0  0  0  0  0  0  0  0  0  0
    4.1156    1.5604   18.7329 C   0  0  0  0  0  0  0  0  0  0  0  0
    4.8554    1.0135   19.9176 C   0  0  0  0  0  0  0  0  0  0  0  0
    6.1558    0.2751   20.0355 C   0  0  0  0  0  0  0  0  0  0  0  0
    7.0619   -0.1013   18.9010 O   0  0  0  0  0  0  0  0  0  0  0  0
    6.3909   -0.0207   21.4871 N   0  0  0  0  0  0  0  0  0  0  0  0
    5.2358    0.5348   22.2664 C   0  0  0  0  0  0  0  0  0  0  0  0
    5.0605    0.4637   23.7544 O   0  0  0  0  0  0  0  0  0  0  0  0
    4.2868    1.1740   21.2964 N   0  0  0  0  0  0  0  0  0  0  0  0
    2.9785    1.8814   21.4904 C   0  0  0  0  0  0  0  0  0  0  0  0
    7.5734   -0.7449   22.0591 C   0  0  0  0  0  0  0  0  0  0  0  0
    8.9511   -0.1730   21.9018 C   0  0  0  0  0  0  0  0  0  0  0  0
   10.1336   -0.8972   22.4737 N   0  0  0  0  0  0  0  0  0  0  0  0
    9.9384   -2.1934   23.2030 C   0  0  0  0  0  0  0  0  0  0  0  0
    8.5607   -2.7654   23.3604 C   0  0  0  0  0  0  0  0  0  0  0  0
    8.3655   -4.0615   24.0896 C   0  0  0  0  0  0  0  0  0  0  0  0
    6.9878   -4.6334   24.2470 C   0  0  0  0  0  0  0  0  0  0  0  0
    5.8053   -3.9092   23.6750 C   0  0  0  0  0  0  0  0  0  0  0  0
    6.0005   -2.6131   22.9457 C   0  0  0  0  0  0  0  0  0  0  0  0
    7.3782   -2.0411   22.7884 C   0  0  0  0  0  0  0  0  0  0  0  0
  2  1  1  0  0  0
  2  3  1  0  0  0
  3  4  1  0  0  0
  4  5  1  0  0  0
  5  6  2  0  0  0
  6  7  1  0  0  0
  6  8  1  0  0  0
  8 13  1  0  0  0
 13 14  2  0  0  0
 14 15  1  0  0  0
 15 16  2  0  0  0
 16 17  1  0  0  0
 17 18  2  0  0  0
 18 19  1  0  0  0
 19 20  2  0  0  0
 20 21  1  0  0  0
 21 22  2  0  0  0
  8  9  1  0  0  0
  9 10  2  0  0  0
  9 11  1  0  0  0
 11 12  1  0  0  0
 12  2  1  0  0  0
 11  5  1  0  0  0
 22 13  1  0  0  0
 22 17  1  0  0  0
M  CHG 1   7  -1
M  END
> <minimizedAffinity>
-6.13030

> <CNNscore>
0.3561314046

> <CNNaffinity>
5.3233385086

> <CNN_VS>
1.8958079815

> <CNNaffinity_variance>
0.2801989913

$$$$
