


 31 35  0  0  0  0  0  0  0  0999 V2000
   -9.5506   -2.4875  -23.6809 C   0  0  0  0  0  0  0  0  0  0  0  0
   -8.3039   -2.7098  -22.8769 C   0  0  0  0  0  0  0  0  0  0  0  0
   -8.0337   -1.5749  -21.9340 C   0  0  0  0  0  0  0  0  0  0  0  0
   -6.7752   -1.8882  -21.1803 N   0  0  0  0  0  0  0  0  0  0  0  0
   -6.2677   -3.2166  -21.6574 C   0  0  0  0  0  0  0  0  0  0  0  0
   -5.0322   -3.9148  -21.1713 O   0  0  0  0  0  0  0  0  0  0  0  0
   -7.2125   -3.7244  -22.7060 C   0  0  0  0  0  0  0  0  0  0  0  0
   -6.0603   -4.6432  -22.4266 C   0  0  0  0  0  0  0  0  0  0  0  0
   -5.9355   -5.9383  -23.1731 N   0  0  0  0  0  0  0  0  0  0  0  0
   -6.9630   -6.3145  -24.1991 C   0  0  0  0  0  0  0  0  0  0  0  0
   -6.8382   -7.6095  -24.9457 O   0  0  0  0  0  0  0  0  0  0  0  0
   -8.1153   -5.3956  -24.4786 C   0  0  0  0  0  0  0  0  0  0  0  0
   -9.1427   -5.7718  -25.5046 C   0  0  0  0  0  0  0  0  0  0  0  0
  -10.2950   -4.8530  -25.7841 C   0  0  0  0  0  0  0  0  0  0  0  0
  -10.4197   -3.5580  -25.0375 C   0  0  0  0  0  0  0  0  0  0  0  0
  -11.5720   -2.6391  -25.3170 F   0  0  0  0  0  0  0  0  0  0  0  0
   -9.3922   -3.1818  -24.0115 C   0  0  0  0  0  0  0  0  0  0  0  0
   -8.2400   -4.1006  -23.7321 C   0  0  0  0  0  0  0  0  0  0  0  0
   -6.1364   -1.0247  -20.1333 C   0  0  0  0  0  0  0  0  0  0  0  0
   -6.6796   -1.0152  -18.7352 C   0  0  0  0  0  0  0  0  0  0  0  0
   -6.0407   -0.1517  -17.6882 N   0  0  0  0  0  0  0  0  0  0  0  0
   -4.8587    0.7024  -18.0394 C   0  0  0  0  0  0  0  0  0  0  0  0
   -4.3155    0.6929  -19.4376 C   0  0  0  0  0  0  0  0  0  0  0  0
   -3.1334    1.5471  -19.7887 C   0  0  0  0  0  0  0  0  0  0  0  0
   -2.5903    1.5375  -21.1869 C   0  0  0  0  0  0  0  0  0  0  0  0
   -3.2291    0.6740  -22.2338 C   0  0  0  0  0  0  0  0  0  0  0  0
   -4.4111   -0.1800  -21.8826 C   0  0  0  0  0  0  0  0  0  0  0  0
   -4.9543   -0.1706  -20.4846 C   0  0  0  0  0  0  0  0  0  0  0  0
   -4.7832   -6.8571  -22.8936 C   0  0  0  0  0  0  0  0  0  0  0  0
   -3.5867   -6.8562  -23.7982 C   0  0  0  0  0  0  0  0  0  0  0  0
   -2.3902   -6.8553  -24.7028 N   0  0  0  0  0  0  0  0  0  0  0  0
  2  1  1  0  0  0
  2  3  1  0  0  0
  3  4  1  0  0  0
  4 19  1  0  0  0
 19 20  2  0  0  0
 20 21  1  0  0  0
 21 22  2  0  0  0
 22 23  1  0  0  0
 23 24  2  0  0  0
 24 25  1  0  0  0
 25 26  2  0  0  0
 26 27  1  0  0  0
 27 28  2  0  0  0
  4  5  1  0  0  0
  5  6  2  0  0  0
  5  7  1  0  0  0
  7  8  1  0  0  0
  8  9  1  0  0  0
  9 29  1  0  0  0
 29 30  1  0  0  0
 30 31  3  0  0  0
  9 10  1  0  0  0
 10 11  2  0  0  0
 10 12  1  0  0  0
 12 13  2  0  0  0
 13 14  1  0  0  0
 14 15  2  0  0  0
 15 16  1  0  0  0
 15 17  1  0  0  0
 17 18  2  0  0  0
  7  2  1  0  0  0
 18 12  1  0  0  0
 28 19  1  0  0  0
 18  7  1  0  0  0
 28 23  1  0  0  0
M  END
> <minimizedAffinity>
-7.72171

> <CNNscore>
0.6628900766

> <CNNaffinity>
6.2833504677

> <CNN_VS>
4.1651706696

> <CNNaffinity_variance>
0.1363786459

$$$$



 31 35  0  0  0  0  0  0  0  0999 V2000
   -5.7293   -5.3660  -23.4135 C   0  0  0  0  0  0  0  0  0  0  0  0
   -6.3979   -4.1871  -22.7704 C   0  0  0  0  0  0  0  0  0  0  0  0
   -5.5111   -3.5198  -21.7613 C   0  0  0  0  0  0  0  0  0  0  0  0
   -6.2635   -2.3608  -21.1776 N   0  0  0  0  0  0  0  0  0  0  0  0
   -7.6153   -2.3119  -21.8260 C   0  0  0  0  0  0  0  0  0  0  0  0
   -8.6945   -1.3101  -21.5402 O   0  0  0  0  0  0  0  0  0  0  0  0
   -7.6983   -3.4406  -22.8105 C   0  0  0  0  0  0  0  0  0  0  0  0
   -8.9383   -2.5995  -22.7408 C   0  0  0  0  0  0  0  0  0  0  0  0
  -10.1151   -2.9246  -23.6122 N   0  0  0  0  0  0  0  0  0  0  0  0
  -10.0519   -4.0908  -24.5534 C   0  0  0  0  0  0  0  0  0  0  0  0
  -11.2287   -4.4160  -25.4249 O   0  0  0  0  0  0  0  0  0  0  0  0
   -8.8118   -4.9320  -24.6232 C   0  0  0  0  0  0  0  0  0  0  0  0
   -8.7487   -6.0983  -25.5644 C   0  0  0  0  0  0  0  0  0  0  0  0
   -7.5087   -6.9394  -25.6341 C   0  0  0  0  0  0  0  0  0  0  0  0
   -6.3319   -6.6143  -24.7626 C   0  0  0  0  0  0  0  0  0  0  0  0
   -5.0918   -7.4555  -24.8324 F   0  0  0  0  0  0  0  0  0  0  0  0
   -6.3951   -5.4480  -23.8214 C   0  0  0  0  0  0  0  0  0  0  0  0
   -7.6350   -4.6069  -23.7517 C   0  0  0  0  0  0  0  0  0  0  0  0
   -5.7538   -1.4166  -20.1295 C   0  0  0  0  0  0  0  0  0  0  0  0
   -6.2034   -1.5625  -18.7060 C   0  0  0  0  0  0  0  0  0  0  0  0
   -5.6937   -0.6182  -17.6579 N   0  0  0  0  0  0  0  0  0  0  0  0
   -4.7342    0.4719  -18.0334 C   0  0  0  0  0  0  0  0  0  0  0  0
   -4.2846    0.6178  -19.4570 C   0  0  0  0  0  0  0  0  0  0  0  0
   -3.3251    1.7081  -19.8324 C   0  0  0  0  0  0  0  0  0  0  0  0
   -2.8755    1.8539  -21.2560 C   0  0  0  0  0  0  0  0  0  0  0  0
   -3.3853    0.9097  -22.3040 C   0  0  0  0  0  0  0  0  0  0  0  0
   -4.3447   -0.1805  -21.9285 C   0  0  0  0  0  0  0  0  0  0  0  0
   -4.7943   -0.3264  -20.5051 C   0  0  0  0  0  0  0  0  0  0  0  0
  -11.3551   -2.0834  -23.5424 C   0  0  0  0  0  0  0  0  0  0  0  0
  -12.4780   -2.4771  -22.6292 C   0  0  0  0  0  0  0  0  0  0  0  0
  -13.6009   -2.8707  -21.7159 N   0  0  0  0  0  0  0  0  0  0  0  0
  2  1  1  0  0  0
  2  3  1  0  0  0
  3  4  1  0  0  0
  4 19  1  0  0  0
 19 20  2  0  0  0
 20 21  1  0  0  0
 21 22  2  0  0  0
 22 23  1  0  0  0
 23 24  2  0  0  0
 24 25  1  0  0  0
 25 26  2  0  0  0
 26 27  1  0  0  0
 27 28  2  0  0  0
  4  5  1  0  0  0
  5  6  2  0  0  0
  5  7  1  0  0  0
  7  8  1  0  0  0
  8  9  1  0  0  0
  9 29  1  0  0  0
 29 30  1  0  0  0
 30 31  3  0  0  0
  9 10  1  0  0  0
 10 11  2  0  0  0
 10 12  1  0  0  0
 12 13  2  0  0  0
 13 14  1  0  0  0
 14 15  2  0  0  0
 15 16  1  0  0  0
 15 17  1  0  0  0
 17 18  2  0  0  0
  7  2  1  0  0  0
 18 12  1  0  0  0
 28 19  1  0  0  0
 18  7  1  0  0  0
 28 23  1  0  0  0
M  END
> <minimizedAffinity>
-8.46963

> <CNNscore>
0.6216557026

> <CNNaffinity>
6.3006858826

> <CNN_VS>
3.9168572426

> <CNNaffinity_variance>
0.1288077533

$$$$



 31 35  0  0  0  0  0  0  0  0999 V2000
   -5.3630    1.3608  -26.0036 C   0  0  0  0  0  0  0  0  0  0  0  0
   -6.2259    1.2321  -24.7833 C   0  0  0  0  0  0  0  0  0  0  0  0
   -7.6867    1.2725  -25.1214 C   0  0  0  0  0  0  0  0  0  0  0  0
   -8.4619    1.1374  -23.8444 N   0  0  0  0  0  0  0  0  0  0  0  0
   -7.4801    1.0135  -22.7171 C   0  0  0  0  0  0  0  0  0  0  0  0
   -7.8206    0.8583  -21.2645 O   0  0  0  0  0  0  0  0  0  0  0  0
   -6.0982    1.0720  -23.2974 C   0  0  0  0  0  0  0  0  0  0  0  0
   -6.1274    0.9118  -21.8063 C   0  0  0  0  0  0  0  0  0  0  0  0
   -4.8433    0.8254  -21.0359 N   0  0  0  0  0  0  0  0  0  0  0  0
   -3.5299    0.8992  -21.7567 C   0  0  0  0  0  0  0  0  0  0  0  0
   -2.2457    0.8127  -20.9863 O   0  0  0  0  0  0  0  0  0  0  0  0
   -3.5006    1.0594  -23.2478 C   0  0  0  0  0  0  0  0  0  0  0  0
   -2.1872    1.1332  -23.9686 C   0  0  0  0  0  0  0  0  0  0  0  0
   -2.1579    1.2934  -25.4597 C   0  0  0  0  0  0  0  0  0  0  0  0
   -3.4421    1.3798  -26.2300 C   0  0  0  0  0  0  0  0  0  0  0  0
   -3.4128    1.5400  -27.7212 F   0  0  0  0  0  0  0  0  0  0  0  0
   -4.7555    1.3060  -25.5093 C   0  0  0  0  0  0  0  0  0  0  0  0
   -4.7847    1.1458  -24.0182 C   0  0  0  0  0  0  0  0  0  0  0  0
   -9.9565    1.1279  -23.7170 C   0  0  0  0  0  0  0  0  0  0  0  0
  -10.7344    2.3943  -23.9190 C   0  0  0  0  0  0  0  0  0  0  0  0
  -12.2290    2.3848  -23.7916 N   0  0  0  0  0  0  0  0  0  0  0  0
  -12.9455    1.1088  -23.4621 C   0  0  0  0  0  0  0  0  0  0  0  0
  -12.1674   -0.1576  -23.2600 C   0  0  0  0  0  0  0  0  0  0  0  0
  -12.8840   -1.4336  -22.9305 C   0  0  0  0  0  0  0  0  0  0  0  0
  -12.1059   -2.7000  -22.7285 C   0  0  0  0  0  0  0  0  0  0  0  0
  -10.6114   -2.6904  -22.8559 C   0  0  0  0  0  0  0  0  0  0  0  0
   -9.8949   -1.4145  -23.1854 C   0  0  0  0  0  0  0  0  0  0  0  0
  -10.6729   -0.1481  -23.3875 C   0  0  0  0  0  0  0  0  0  0  0  0
   -4.8725    0.6652  -19.5447 C   0  0  0  0  0  0  0  0  0  0  0  0
   -5.4365   -0.5842  -18.9356 C   0  0  0  0  0  0  0  0  0  0  0  0
   -6.0004   -1.8335  -18.3264 N   0  0  0  0  0  0  0  0  0  0  0  0
  2  1  1  0  0  0
  2  3  1  0  0  0
  3  4  1  0  0  0
  4 19  1  0  0  0
 19 20  2  0  0  0
 20 21  1  0  0  0
 21 22  2  0  0  0
 22 23  1  0  0  0
 23 24  2  0  0  0
 24 25  1  0  0  0
 25 26  2  0  0  0
 26 27  1  0  0  0
 27 28  2  0  0  0
  4  5  1  0  0  0
  5  6  2  0  0  0
  5  7  1  0  0  0
  7  8  1  0  0  0
  8  9  1  0  0  0
  9 29  1  0  0  0
 29 30  1  0  0  0
 30 31  3  0  0  0
  9 10  1  0  0  0
 10 11  2  0  0  0
 10 12  1  0  0  0
 12 13  2  0  0  0
 13 14  1  0  0  0
 14 15  2  0  0  0
 15 16  1  0  0  0
 15 17  1  0  0  0
 17 18  2  0  0  0
  7  2  1  0  0  0
 18 12  1  0  0  0
 28 19  1  0  0  0
 18  7  1  0  0  0
 28 23  1  0  0  0
M  END
> <minimizedAffinity>
-7.26116

> <CNNscore>
0.5601228476

> <CNNaffinity>
6.1215629578

> <CNN_VS>
3.4288272858

> <CNNaffinity_variance>
0.0328101218

$$$$



 31 35  0  0  0  0  0  0  0  0999 V2000
   -6.7951    1.9459  -23.8843 C   0  0  0  0  0  0  0  0  0  0  0  0
   -8.2710    1.6802  -23.8451 C   0  0  0  0  0  0  0  0  0  0  0  0
   -9.0702    2.9495  -23.8297 C   0  0  0  0  0  0  0  0  0  0  0  0
  -10.5238    2.5815  -23.7906 N   0  0  0  0  0  0  0  0  0  0  0  0
  -10.6229    1.0848  -23.7819 C   0  0  0  0  0  0  0  0  0  0  0  0
  -11.8917    0.2855  -23.7457 O   0  0  0  0  0  0  0  0  0  0  0  0
   -9.2306    0.5278  -23.8155 C   0  0  0  0  0  0  0  0  0  0  0  0
  -10.3054   -0.5180  -23.7834 C   0  0  0  0  0  0  0  0  0  0  0  0
   -9.9374   -1.9722  -23.7868 N   0  0  0  0  0  0  0  0  0  0  0  0
   -8.4945   -2.3805  -23.8224 C   0  0  0  0  0  0  0  0  0  0  0  0
   -8.1265   -3.8347  -23.8259 O   0  0  0  0  0  0  0  0  0  0  0  0
   -7.4196   -1.3347  -23.8545 C   0  0  0  0  0  0  0  0  0  0  0  0
   -5.9767   -1.7431  -23.8901 C   0  0  0  0  0  0  0  0  0  0  0  0
   -4.9019   -0.6974  -23.9223 C   0  0  0  0  0  0  0  0  0  0  0  0
   -5.2700    0.7568  -23.9188 C   0  0  0  0  0  0  0  0  0  0  0  0
   -4.1950    1.8026  -23.9509 F   0  0  0  0  0  0  0  0  0  0  0  0
   -6.7128    1.1652  -23.8832 C   0  0  0  0  0  0  0  0  0  0  0  0
   -7.7876    0.1194  -23.8511 C   0  0  0  0  0  0  0  0  0  0  0  0
  -11.6760    3.5416  -23.7649 C   0  0  0  0  0  0  0  0  0  0  0  0
  -12.5191    3.6683  -22.5308 C   0  0  0  0  0  0  0  0  0  0  0  0
  -13.6713    4.6284  -22.5051 N   0  0  0  0  0  0  0  0  0  0  0  0
  -13.9803    5.4617  -23.7134 C   0  0  0  0  0  0  0  0  0  0  0  0
  -13.1371    5.3350  -24.9475 C   0  0  0  0  0  0  0  0  0  0  0  0
  -13.4461    6.1684  -26.1559 C   0  0  0  0  0  0  0  0  0  0  0  0
  -12.6029    6.0415  -27.3899 C   0  0  0  0  0  0  0  0  0  0  0  0
  -11.4508    5.0815  -27.4156 C   0  0  0  0  0  0  0  0  0  0  0  0
  -11.1418    4.2481  -26.2073 C   0  0  0  0  0  0  0  0  0  0  0  0
  -11.9849    4.3749  -24.9733 C   0  0  0  0  0  0  0  0  0  0  0  0
  -11.0123   -3.0179  -23.7547 C   0  0  0  0  0  0  0  0  0  0  0  0
  -12.1705   -2.8743  -22.8124 C   0  0  0  0  0  0  0  0  0  0  0  0
  -13.3287   -2.7307  -21.8702 N   0  0  0  0  0  0  0  0  0  0  0  0
  2  1  1  0  0  0
  2  3  1  0  0  0
  3  4  1  0  0  0
  4 19  1  0  0  0
 19 20  2  0  0  0
 20 21  1  0  0  0
 21 22  2  0  0  0
 22 23  1  0  0  0
 23 24  2  0  0  0
 24 25  1  0  0  0
 25 26  2  0  0  0
 26 27  1  0  0  0
 27 28  2  0  0  0
  4  5  1  0  0  0
  5  6  2  0  0  0
  5  7  1  0  0  0
  7  8  1  0  0  0
  8  9  1  0  0  0
  9 29  1  0  0  0
 29 30  1  0  0  0
 30 31  3  0  0  0
  9 10  1  0  0  0
 10 11  2  0  0  0
 10 12  1  0  0  0
 12 13  2  0  0  0
 13 14  1  0  0  0
 14 15  2  0  0  0
 15 16  1  0  0  0
 15 17  1  0  0  0
 17 18  2  0  0  0
  7  2  1  0  0  0
 18 12  1  0  0  0
 28 19  1  0  0  0
 18  7  1  0  0  0
 28 23  1  0  0  0
M  END
> <minimizedAffinity>
-6.89033

> <CNNscore>
0.5023168325

> <CNNaffinity>
6.1930427551

> <CNN_VS>
3.1108696461

> <CNNaffinity_variance>
0.1026582494

$$$$



 31 35  0  0  0  0  0  0  0  0999 V2000
   -5.4476   -0.7911  -25.9844 C   0  0  0  0  0  0  0  0  0  0  0  0
   -6.2438   -0.6230  -24.7242 C   0  0  0  0  0  0  0  0  0  0  0  0
   -7.6927   -0.9545  -24.9267 C   0  0  0  0  0  0  0  0  0  0  0  0
   -8.4004   -0.7572  -23.6190 N   0  0  0  0  0  0  0  0  0  0  0  0
   -7.3890   -0.3037  -22.6084 C   0  0  0  0  0  0  0  0  0  0  0  0
   -7.6625    0.0114  -21.1676 O   0  0  0  0  0  0  0  0  0  0  0  0
   -6.0561   -0.2208  -23.2914 C   0  0  0  0  0  0  0  0  0  0  0  0
   -6.0224    0.1564  -21.8401 C   0  0  0  0  0  0  0  0  0  0  0  0
   -4.7289    0.5691  -21.2023 N   0  0  0  0  0  0  0  0  0  0  0  0
   -3.4693    0.6046  -22.0159 C   0  0  0  0  0  0  0  0  0  0  0  0
   -2.1759    1.0172  -21.3781 O   0  0  0  0  0  0  0  0  0  0  0  0
   -3.5030    0.2273  -23.4673 C   0  0  0  0  0  0  0  0  0  0  0  0
   -2.2434    0.2628  -24.2809 C   0  0  0  0  0  0  0  0  0  0  0  0
   -2.2772   -0.1144  -25.7323 C   0  0  0  0  0  0  0  0  0  0  0  0
   -3.5706   -0.5271  -26.3701 C   0  0  0  0  0  0  0  0  0  0  0  0
   -3.6043   -0.9043  -27.8215 F   0  0  0  0  0  0  0  0  0  0  0  0
   -4.8302   -0.5626  -25.5565 C   0  0  0  0  0  0  0  0  0  0  0  0
   -4.7965   -0.1853  -24.1051 C   0  0  0  0  0  0  0  0  0  0  0  0
   -9.8628   -0.9751  -23.3663 C   0  0  0  0  0  0  0  0  0  0  0  0
  -10.3624   -2.3351  -22.9783 C   0  0  0  0  0  0  0  0  0  0  0  0
  -11.8248   -2.5530  -22.7256 N   0  0  0  0  0  0  0  0  0  0  0  0
  -12.7876   -1.4107  -22.8608 C   0  0  0  0  0  0  0  0  0  0  0  0
  -12.2880   -0.0506  -23.2489 C   0  0  0  0  0  0  0  0  0  0  0  0
  -13.2509    1.0916  -23.3841 C   0  0  0  0  0  0  0  0  0  0  0  0
  -12.7512    2.4517  -23.7721 C   0  0  0  0  0  0  0  0  0  0  0  0
  -11.2888    2.6695  -24.0248 C   0  0  0  0  0  0  0  0  0  0  0  0
  -10.3260    1.5273  -23.8896 C   0  0  0  0  0  0  0  0  0  0  0  0
  -10.8256    0.1672  -23.5016 C   0  0  0  0  0  0  0  0  0  0  0  0
   -4.6952    0.9463  -19.7508 C   0  0  0  0  0  0  0  0  0  0  0  0
   -5.1223   -0.0440  -18.7084 C   0  0  0  0  0  0  0  0  0  0  0  0
   -5.5495   -1.0344  -17.6660 N   0  0  0  0  0  0  0  0  0  0  0  0
  2  1  1  0  0  0
  2  3  1  0  0  0
  3  4  1  0  0  0
  4 19  1  0  0  0
 19 20  2  0  0  0
 20 21  1  0  0  0
 21 22  2  0  0  0
 22 23  1  0  0  0
 23 24  2  0  0  0
 24 25  1  0  0  0
 25 26  2  0  0  0
 26 27  1  0  0  0
 27 28  2  0  0  0
  4  5  1  0  0  0
  5  6  2  0  0  0
  5  7  1  0  0  0
  7  8  1  0  0  0
  8  9  1  0  0  0
  9 29  1  0  0  0
 29 30  1  0  0  0
 30 31  3  0  0  0
  9 10  1  0  0  0
 10 11  2  0  0  0
 10 12  1  0  0  0
 12 13  2  0  0  0
 13 14  1  0  0  0
 14 15  2  0  0  0
 15 16  1  0  0  0
 15 17  1  0  0  0
 17 18  2  0  0  0
  7  2  1  0  0  0
 18 12  1  0  0  0
 28 19  1  0  0  0
 18  7  1  0  0  0
 28 23  1  0  0  0
M  END
> <minimizedAffinity>
-7.59896

> <CNNscore>
0.4612949789

> <CNNaffinity>
6.0081691742

> <CNN_VS>
2.7715382576

> <CNNaffinity_variance>
0.0158693995

$$$$



 31 35  0  0  0  0  0  0  0  0999 V2000
   -7.2791   -0.2510  -21.1925 C   0  0  0  0  0  0  0  0  0  0  0  0
   -8.4730   -0.3487  -22.0954 C   0  0  0  0  0  0  0  0  0  0  0  0
   -9.2517    0.9326  -22.1377 C   0  0  0  0  0  0  0  0  0  0  0  0
  -10.4178    0.7361  -23.0606 N   0  0  0  0  0  0  0  0  0  0  0  0
  -10.3597   -0.6667  -23.5886 C   0  0  0  0  0  0  0  0  0  0  0  0
  -11.3327   -1.2897  -24.5452 O   0  0  0  0  0  0  0  0  0  0  0  0
   -9.1578   -1.3372  -22.9921 C   0  0  0  0  0  0  0  0  0  0  0  0
   -9.9476   -2.2129  -23.9189 C   0  0  0  0  0  0  0  0  0  0  0  0
   -9.5077   -3.6241  -24.1742 N   0  0  0  0  0  0  0  0  0  0  0  0
   -8.2779   -4.1594  -23.5026 C   0  0  0  0  0  0  0  0  0  0  0  0
   -7.8380   -5.5706  -23.7579 O   0  0  0  0  0  0  0  0  0  0  0  0
   -7.4880   -3.2837  -22.5757 C   0  0  0  0  0  0  0  0  0  0  0  0
   -6.2583   -3.8190  -21.9041 C   0  0  0  0  0  0  0  0  0  0  0  0
   -5.4685   -2.9432  -20.9772 C   0  0  0  0  0  0  0  0  0  0  0  0
   -5.9084   -1.5321  -20.7219 C   0  0  0  0  0  0  0  0  0  0  0  0
   -5.1185   -0.6563  -19.7950 F   0  0  0  0  0  0  0  0  0  0  0  0
   -7.1381   -0.9968  -21.3935 C   0  0  0  0  0  0  0  0  0  0  0  0
   -7.9280   -1.8725  -22.3204 C   0  0  0  0  0  0  0  0  0  0  0  0
  -11.4590    1.7622  -23.3966 C   0  0  0  0  0  0  0  0  0  0  0  0
  -12.8041    1.7102  -22.7349 C   0  0  0  0  0  0  0  0  0  0  0  0
  -13.8454    2.7362  -23.0709 N   0  0  0  0  0  0  0  0  0  0  0  0
  -13.5415    3.8143  -24.0685 C   0  0  0  0  0  0  0  0  0  0  0  0
  -12.1963    3.8663  -24.7302 C   0  0  0  0  0  0  0  0  0  0  0  0
  -11.8925    4.9445  -25.7280 C   0  0  0  0  0  0  0  0  0  0  0  0
  -10.5473    4.9964  -26.3896 C   0  0  0  0  0  0  0  0  0  0  0  0
   -9.5061    3.9704  -26.0536 C   0  0  0  0  0  0  0  0  0  0  0  0
   -9.8100    2.8923  -25.0560 C   0  0  0  0  0  0  0  0  0  0  0  0
  -11.1551    2.8403  -24.3943 C   0  0  0  0  0  0  0  0  0  0  0  0
  -10.2976   -4.4999  -25.1012 C   0  0  0  0  0  0  0  0  0  0  0  0
   -9.8755   -4.6500  -26.5327 C   0  0  0  0  0  0  0  0  0  0  0  0
   -9.4535   -4.8001  -27.9642 N   0  0  0  0  0  0  0  0  0  0  0  0
  2  1  1  0  0  0
  2  3  1  0  0  0
  3  4  1  0  0  0
  4 19  1  0  0  0
 19 20  2  0  0  0
 20 21  1  0  0  0
 21 22  2  0  0  0
 22 23  1  0  0  0
 23 24  2  0  0  0
 24 25  1  0  0  0
 25 26  2  0  0  0
 26 27  1  0  0  0
 27 28  2  0  0  0
  4  5  1  0  0  0
  5  6  2  0  0  0
  5  7  1  0  0  0
  7  8  1  0  0  0
  8  9  1  0  0  0
  9 29  1  0  0  0
 29 30  1  0  0  0
 30 31  3  0  0  0
  9 10  1  0  0  0
 10 11  2  0  0  0
 10 12  1  0  0  0
 12 13  2  0  0  0
 13 14  1  0  0  0
 14 15  2  0  0  0
 15 16  1  0  0  0
 15 17  1  0  0  0
 17 18  2  0  0  0
  7  2  1  0  0  0
 18 12  1  0  0  0
 28 19  1  0  0  0
 18  7  1  0  0  0
 28 23  1  0  0  0
M  END
> <minimizedAffinity>
-8.19058

> <CNNscore>
0.3977719545

> <CNNaffinity>
6.0439934731

> <CNN_VS>
2.4041311741

> <CNNaffinity_variance>
0.1027645022

$$$$



 31 35  0  0  0  0  0  0  0  0999 V2000
   -6.1181    4.5086  -24.0679 C   0  0  0  0  0  0  0  0  0  0  0  0
   -6.8620    3.3407  -23.4908 C   0  0  0  0  0  0  0  0  0  0  0  0
   -8.3074    3.3415  -23.8918 C   0  0  0  0  0  0  0  0  0  0  0  0
   -8.9616    2.1436  -23.2696 N   0  0  0  0  0  0  0  0  0  0  0  0
   -7.9205    1.4026  -22.4841 C   0  0  0  0  0  0  0  0  0  0  0  0
   -8.1388    0.1428  -21.6997 O   0  0  0  0  0  0  0  0  0  0  0  0
   -6.6229    2.1424  -22.6208 C   0  0  0  0  0  0  0  0  0  0  0  0
   -6.5358    0.9101  -21.7701 C   0  0  0  0  0  0  0  0  0  0  0  0
   -5.2286    0.5201  -21.1464 N   0  0  0  0  0  0  0  0  0  0  0  0
   -4.0084    1.3625  -21.3733 C   0  0  0  0  0  0  0  0  0  0  0  0
   -2.7012    0.9725  -20.7495 O   0  0  0  0  0  0  0  0  0  0  0  0
   -4.0954    2.5949  -22.2240 C   0  0  0  0  0  0  0  0  0  0  0  0
   -2.8752    3.4373  -22.4509 C   0  0  0  0  0  0  0  0  0  0  0  0
   -2.9623    4.6696  -23.3015 C   0  0  0  0  0  0  0  0  0  0  0  0
   -4.2695    5.0596  -23.9253 C   0  0  0  0  0  0  0  0  0  0  0  0
   -4.3565    6.2920  -24.7760 F   0  0  0  0  0  0  0  0  0  0  0  0
   -5.4897    4.2172  -23.6984 C   0  0  0  0  0  0  0  0  0  0  0  0
   -5.4026    2.9849  -22.8477 C   0  0  0  0  0  0  0  0  0  0  0  0
  -10.4037    1.7550  -23.4085 C   0  0  0  0  0  0  0  0  0  0  0  0
  -10.7985    0.3087  -23.3624 C   0  0  0  0  0  0  0  0  0  0  0  0
  -12.2406   -0.0799  -23.5013 N   0  0  0  0  0  0  0  0  0  0  0  0
  -13.2879    0.9779  -23.6864 C   0  0  0  0  0  0  0  0  0  0  0  0
  -12.8931    2.4243  -23.7326 C   0  0  0  0  0  0  0  0  0  0  0  0
  -13.9404    3.4821  -23.9177 C   0  0  0  0  0  0  0  0  0  0  0  0
  -13.5455    4.9284  -23.9639 C   0  0  0  0  0  0  0  0  0  0  0  0
  -12.1035    5.3169  -23.8250 C   0  0  0  0  0  0  0  0  0  0  0  0
  -11.0562    4.2592  -23.6398 C   0  0  0  0  0  0  0  0  0  0  0  0
  -11.4510    2.8129  -23.5937 C   0  0  0  0  0  0  0  0  0  0  0  0
   -5.1416   -0.7123  -20.2957 C   0  0  0  0  0  0  0  0  0  0  0  0
   -5.2903   -0.6079  -18.8067 C   0  0  0  0  0  0  0  0  0  0  0  0
   -5.4391   -0.5035  -17.3178 N   0  0  0  0  0  0  0  0  0  0  0  0
  2  1  1  0  0  0
  2  3  1  0  0  0
  3  4  1  0  0  0
  4 19  1  0  0  0
 19 20  2  0  0  0
 20 21  1  0  0  0
 21 22  2  0  0  0
 22 23  1  0  0  0
 23 24  2  0  0  0
 24 25  1  0  0  0
 25 26  2  0  0  0
 26 27  1  0  0  0
 27 28  2  0  0  0
  4  5  1  0  0  0
  5  6  2  0  0  0
  5  7  1  0  0  0
  7  8  1  0  0  0
  8  9  1  0  0  0
  9 29  1  0  0  0
 29 30  1  0  0  0
 30 31  3  0  0  0
  9 10  1  0  0  0
 10 11  2  0  0  0
 10 12  1  0  0  0
 12 13  2  0  0  0
 13 14  1  0  0  0
 14 15  2  0  0  0
 15 16  1  0  0  0
 15 17  1  0  0  0
 17 18  2  0  0  0
  7  2  1  0  0  0
 18 12  1  0  0  0
 28 19  1  0  0  0
 18  7  1  0  0  0
 28 23  1  0  0  0
M  END
> <minimizedAffinity>
-7.36856

> <CNNscore>
0.3864341378

> <CNNaffinity>
5.7950716019

> <CNN_VS>
2.2394134998

> <CNNaffinity_variance>
0.0304132346

$$$$



 31 35  0  0  0  0  0  0  0  0999 V2000
   -9.1363   -3.3742  -23.9437 C   0  0  0  0  0  0  0  0  0  0  0  0
   -7.9425   -2.5062  -23.6758 C   0  0  0  0  0  0  0  0  0  0  0  0
   -7.7999   -2.1812  -22.2184 C   0  0  0  0  0  0  0  0  0  0  0  0
   -6.5862   -1.3154  -22.0532 N   0  0  0  0  0  0  0  0  0  0  0  0
   -5.9787   -1.1054  -23.4086 C   0  0  0  0  0  0  0  0  0  0  0  0
   -4.7489   -0.3007  -23.7084 O   0  0  0  0  0  0  0  0  0  0  0  0
   -6.8170   -1.8414  -24.4114 C   0  0  0  0  0  0  0  0  0  0  0  0
   -5.6437   -1.1219  -25.0077 C   0  0  0  0  0  0  0  0  0  0  0  0
   -5.3993   -1.1824  -26.4864 N   0  0  0  0  0  0  0  0  0  0  0  0
   -6.3282   -1.9624  -27.3688 C   0  0  0  0  0  0  0  0  0  0  0  0
   -6.0838   -2.0229  -28.8475 O   0  0  0  0  0  0  0  0  0  0  0  0
   -7.5015   -2.6820  -26.7725 C   0  0  0  0  0  0  0  0  0  0  0  0
   -8.4304   -3.4620  -27.6549 C   0  0  0  0  0  0  0  0  0  0  0  0
   -9.6037   -4.1815  -27.0586 C   0  0  0  0  0  0  0  0  0  0  0  0
   -9.8481   -4.1210  -25.5799 C   0  0  0  0  0  0  0  0  0  0  0  0
  -11.0215   -4.8406  -24.9836 F   0  0  0  0  0  0  0  0  0  0  0  0
   -8.9192   -3.3410  -24.6975 C   0  0  0  0  0  0  0  0  0  0  0  0
   -7.7459   -2.6215  -25.2938 C   0  0  0  0  0  0  0  0  0  0  0  0
   -6.0705   -0.7576  -20.7599 C   0  0  0  0  0  0  0  0  0  0  0  0
   -6.7842   -1.0589  -19.4755 C   0  0  0  0  0  0  0  0  0  0  0  0
   -6.2685   -0.5011  -18.1821 N   0  0  0  0  0  0  0  0  0  0  0  0
   -5.0390    0.3582  -18.1732 C   0  0  0  0  0  0  0  0  0  0  0  0
   -4.3252    0.6595  -19.4576 C   0  0  0  0  0  0  0  0  0  0  0  0
   -3.0957    1.5188  -19.4487 C   0  0  0  0  0  0  0  0  0  0  0  0
   -2.3820    1.8201  -20.7331 C   0  0  0  0  0  0  0  0  0  0  0  0
   -2.8978    1.2622  -22.0264 C   0  0  0  0  0  0  0  0  0  0  0  0
   -4.1272    0.4030  -22.0354 C   0  0  0  0  0  0  0  0  0  0  0  0
   -4.8410    0.1017  -20.7510 C   0  0  0  0  0  0  0  0  0  0  0  0
   -4.2259   -0.4628  -27.0827 C   0  0  0  0  0  0  0  0  0  0  0  0
   -2.8323   -0.8202  -26.6584 C   0  0  0  0  0  0  0  0  0  0  0  0
   -1.4387   -1.1775  -26.2340 N   0  0  0  0  0  0  0  0  0  0  0  0
  2  1  1  0  0  0
  2  3  1  0  0  0
  3  4  1  0  0  0
  4 19  1  0  0  0
 19 20  2  0  0  0
 20 21  1  0  0  0
 21 22  2  0  0  0
 22 23  1  0  0  0
 23 24  2  0  0  0
 24 25  1  0  0  0
 25 26  2  0  0  0
 26 27  1  0  0  0
 27 28  2  0  0  0
  4  5  1  0  0  0
  5  6  2  0  0  0
  5  7  1  0  0  0
  7  8  1  0  0  0
  8  9  1  0  0  0
  9 29  1  0  0  0
 29 30  1  0  0  0
 30 31  3  0  0  0
  9 10  1  0  0  0
 10 11  2  0  0  0
 10 12  1  0  0  0
 12 13  2  0  0  0
 13 14  1  0  0  0
 14 15  2  0  0  0
 15 16  1  0  0  0
 15 17  1  0  0  0
 17 18  2  0  0  0
  7  2  1  0  0  0
 18 12  1  0  0  0
 28 19  1  0  0  0
 18  7  1  0  0  0
 28 23  1  0  0  0
M  END
> <minimizedAffinity>
-6.81686

> <CNNscore>
0.3214616776

> <CNNaffinity>
5.8142843246

> <CNN_VS>
1.8690695763

> <CNNaffinity_variance>
0.1327734292

$$$$



 31 35  0  0  0  0  0  0  0  0999 V2000
   -3.8745   -0.6259  -25.7371 C   0  0  0  0  0  0  0  0  0  0  0  0
   -4.8403   -0.6029  -24.5896 C   0  0  0  0  0  0  0  0  0  0  0  0
   -6.1853   -1.1427  -24.9764 C   0  0  0  0  0  0  0  0  0  0  0  0
   -7.0749   -1.0785  -23.7704 N   0  0  0  0  0  0  0  0  0  0  0  0
   -6.2796   -0.4990  -22.6382 C   0  0  0  0  0  0  0  0  0  0  0  0
   -6.7780   -0.2561  -21.2444 O   0  0  0  0  0  0  0  0  0  0  0  0
   -4.8986   -0.2051  -23.1445 C   0  0  0  0  0  0  0  0  0  0  0  0
   -5.1064    0.1447  -21.7008 C   0  0  0  0  0  0  0  0  0  0  0  0
   -3.9812    0.7332  -20.9022 N   0  0  0  0  0  0  0  0  0  0  0  0
   -2.6482    0.9718  -21.5474 C   0  0  0  0  0  0  0  0  0  0  0  0
   -1.5231    1.5602  -20.7488 O   0  0  0  0  0  0  0  0  0  0  0  0
   -2.4404    0.6220  -22.9912 C   0  0  0  0  0  0  0  0  0  0  0  0
   -1.1075    0.8606  -23.6363 C   0  0  0  0  0  0  0  0  0  0  0  0
   -0.8997    0.5108  -25.0801 C   0  0  0  0  0  0  0  0  0  0  0  0
   -2.0249   -0.0777  -25.8786 C   0  0  0  0  0  0  0  0  0  0  0  0
   -1.8171   -0.4275  -27.3224 F   0  0  0  0  0  0  0  0  0  0  0  0
   -3.3578   -0.3163  -25.2335 C   0  0  0  0  0  0  0  0  0  0  0  0
   -3.5656    0.0335  -23.7897 C   0  0  0  0  0  0  0  0  0  0  0  0
   -8.5080   -1.5168  -23.7075 C   0  0  0  0  0  0  0  0  0  0  0  0
   -8.8451   -2.9782  -23.6876 C   0  0  0  0  0  0  0  0  0  0  0  0
  -10.2783   -3.4165  -23.6247 N   0  0  0  0  0  0  0  0  0  0  0  0
  -11.3743   -2.3933  -23.5817 C   0  0  0  0  0  0  0  0  0  0  0  0
  -11.0371   -0.9318  -23.6016 C   0  0  0  0  0  0  0  0  0  0  0  0
  -12.1332    0.0914  -23.5586 C   0  0  0  0  0  0  0  0  0  0  0  0
  -11.7959    1.5528  -23.5784 C   0  0  0  0  0  0  0  0  0  0  0  0
  -10.3628    1.9911  -23.6413 C   0  0  0  0  0  0  0  0  0  0  0  0
   -9.2668    0.9679  -23.6843 C   0  0  0  0  0  0  0  0  0  0  0  0
   -9.6040   -0.4935  -23.6645 C   0  0  0  0  0  0  0  0  0  0  0  0
   -4.1890    1.0830  -19.4584 C   0  0  0  0  0  0  0  0  0  0  0  0
   -4.8708    0.1109  -18.5418 C   0  0  0  0  0  0  0  0  0  0  0  0
   -5.5525   -0.8612  -17.6252 N   0  0  0  0  0  0  0  0  0  0  0  0
  2  1  1  0  0  0
  2  3  1  0  0  0
  3  4  1  0  0  0
  4 19  1  0  0  0
 19 20  2  0  0  0
 20 21  1  0  0  0
 21 22  2  0  0  0
 22 23  1  0  0  0
 23 24  2  0  0  0
 24 25  1  0  0  0
 25 26  2  0  0  0
 26 27  1  0  0  0
 27 28  2  0  0  0
  4  5  1  0  0  0
  5  6  2  0  0  0
  5  7  1  0  0  0
  7  8  1  0  0  0
  8  9  1  0  0  0
  9 29  1  0  0  0
 29 30  1  0  0  0
 30 31  3  0  0  0
  9 10  1  0  0  0
 10 11  2  0  0  0
 10 12  1  0  0  0
 12 13  2  0  0  0
 13 14  1  0  0  0
 14 15  2  0  0  0
 15 16  1  0  0  0
 15 17  1  0  0  0
 17 18  2  0  0  0
  7  2  1  0  0  0
 18 12  1  0  0  0
 28 19  1  0  0  0
 18  7  1  0  0  0
 28 23  1  0  0  0
M  END
> <minimizedAffinity>
-7.03506

> <CNNscore>
0.3202857077

> <CNNaffinity>
5.6362047195

> <CNN_VS>
1.8051958084

> <CNNaffinity_variance>
0.0566352978

$$$$
