


 27 30  0  0  0  0  0  0  0  0999 V2000
   -7.7882    0.4767  -21.4165 O   0  0  0  0  0  0  0  0  0  0  0  0
   -7.3119   -0.9157  -21.7070 C   0  0  0  0  0  0  0  0  0  0  0  0
   -8.2520   -1.9208  -22.3036 C   0  0  0  0  0  0  0  0  0  0  0  0
   -7.7758   -3.3132  -22.5941 C   0  0  0  0  0  0  0  0  0  0  0  0
   -6.3593   -3.7005  -22.2881 C   0  0  0  0  0  0  0  0  0  0  0  0
   -5.8831   -5.0929  -22.5786 O   0  0  0  0  0  0  0  0  0  0  0  0
   -5.4191   -2.6954  -21.6915 C   0  0  0  0  0  0  0  0  0  0  0  0
   -5.8955   -1.3030  -21.4010 N   0  0  0  0  0  0  0  0  0  0  0  0
   -4.9671   -5.3434  -22.3807 H   0  0  0  0  0  0  0  0  0  0  0  0
   -4.9553   -0.2979  -20.8044 C   0  0  0  0  0  0  0  0  0  0  0  0
   -5.0505    0.0456  -19.3474 C   0  0  0  0  0  0  0  0  0  0  0  0
   -4.1103    1.0507  -18.7508 N   0  0  0  0  0  0  0  0  0  0  0  0
   -3.0750    1.7122  -19.6113 C   0  0  0  0  0  0  0  0  0  0  0  0
   -2.9797    1.3687  -21.0683 C   0  0  0  0  0  0  0  0  0  0  0  0
   -1.9444    2.0302  -21.9288 C   0  0  0  0  0  0  0  0  0  0  0  0
   -1.8492    1.6867  -23.3857 C   0  0  0  0  0  0  0  0  0  0  0  0
   -2.7894    0.6816  -23.9823 C   0  0  0  0  0  0  0  0  0  0  0  0
   -3.8247    0.0201  -23.1219 C   0  0  0  0  0  0  0  0  0  0  0  0
   -3.9199    0.3636  -21.6649 C   0  0  0  0  0  0  0  0  0  0  0  0
   -9.6685   -1.5334  -22.6097 C   0  0  0  0  0  0  0  0  0  0  0  0
  -10.7649   -2.5512  -22.4996 C   0  0  0  0  0  0  0  0  0  0  0  0
  -12.1813   -2.1639  -22.8056 C   0  0  0  0  0  0  0  0  0  0  0  0
  -12.5014   -0.7588  -23.2218 C   0  0  0  0  0  0  0  0  0  0  0  0
  -13.9179   -0.3715  -23.5278 Cl  0  0  0  0  0  0  0  0  0  0  0  0
  -11.4050    0.2590  -23.3319 C   0  0  0  0  0  0  0  0  0  0  0  0
  -11.7252    1.6641  -23.7480 Cl  0  0  0  0  0  0  0  0  0  0  0  0
   -9.9886   -0.1283  -23.0258 C   0  0  0  0  0  0  0  0  0  0  0  0
  1  2  2  0  0  0
  2  3  1  0  0  0
  3 20  1  0  0  0
 20 21  2  0  0  0
 21 22  1  0  0  0
 22 23  2  0  0  0
 23 24  1  0  0  0
 23 25  1  0  0  0
 25 26  1  0  0  0
 25 27  2  0  0  0
  3  4  1  0  0  0
  4  5  1  0  0  0
  5  6  1  0  0  0
  5  7  1  0  0  0
  7  8  1  0  0  0
  8 10  1  0  0  0
 10 11  2  0  0  0
 11 12  1  0  0  0
 12 13  2  0  0  0
 13 14  1  0  0  0
 14 15  2  0  0  0
 15 16  1  0  0  0
 16 17  2  0  0  0
 17 18  1  0  0  0
 18 19  2  0  0  0
  8  2  1  0  0  0
 19 10  1  0  0  0
 27 20  1  0  0  0
 19 14  1  0  0  0
  6  9  1  0  0  0
M  END
> <minimizedAffinity>
-7.43707

> <CNNscore>
0.5860865116

> <CNNaffinity>
5.6340765953

> <CNN_VS>
3.3020563126

> <CNNaffinity_variance>
0.1050022095

$$$$



 27 30  0  0  0  0  0  0  0  0999 V2000
   -7.3224    1.1657  -23.4434 O   0  0  0  0  0  0  0  0  0  0  0  0
   -7.4345   -0.3193  -23.2640 C   0  0  0  0  0  0  0  0  0  0  0  0
   -8.7860   -0.9645  -23.1781 C   0  0  0  0  0  0  0  0  0  0  0  0
   -8.8981   -2.4495  -22.9988 C   0  0  0  0  0  0  0  0  0  0  0  0
   -7.6588   -3.2894  -22.9053 C   0  0  0  0  0  0  0  0  0  0  0  0
   -7.7710   -4.7744  -22.7260 O   0  0  0  0  0  0  0  0  0  0  0  0
   -6.3073   -2.6443  -22.9913 C   0  0  0  0  0  0  0  0  0  0  0  0
   -6.1952   -1.1592  -23.1706 N   0  0  0  0  0  0  0  0  0  0  0  0
   -6.9696   -5.3175  -22.6656 H   0  0  0  0  0  0  0  0  0  0  0  0
   -4.8438   -0.5141  -23.2565 C   0  0  0  0  0  0  0  0  0  0  0  0
   -4.0707   -0.5608  -24.5411 C   0  0  0  0  0  0  0  0  0  0  0  0
   -2.7193    0.0843  -24.6270 N   0  0  0  0  0  0  0  0  0  0  0  0
   -2.1409    0.7762  -23.4284 C   0  0  0  0  0  0  0  0  0  0  0  0
   -2.9139    0.8230  -22.1438 C   0  0  0  0  0  0  0  0  0  0  0  0
   -2.3356    1.5148  -20.9451 C   0  0  0  0  0  0  0  0  0  0  0  0
   -3.1086    1.5615  -19.6606 C   0  0  0  0  0  0  0  0  0  0  0  0
   -4.4601    0.9164  -19.5746 C   0  0  0  0  0  0  0  0  0  0  0  0
   -5.0385    0.2245  -20.7733 C   0  0  0  0  0  0  0  0  0  0  0  0
   -4.2654    0.1778  -22.0578 C   0  0  0  0  0  0  0  0  0  0  0  0
  -10.0253   -0.1245  -23.2715 C   0  0  0  0  0  0  0  0  0  0  0  0
   -9.9139    1.3677  -23.3752 C   0  0  0  0  0  0  0  0  0  0  0  0
  -11.1531    2.2076  -23.4686 C   0  0  0  0  0  0  0  0  0  0  0  0
  -12.5038    1.5553  -23.4583 C   0  0  0  0  0  0  0  0  0  0  0  0
  -13.7431    2.3953  -23.5517 Cl  0  0  0  0  0  0  0  0  0  0  0  0
  -12.6152    0.0631  -23.3546 C   0  0  0  0  0  0  0  0  0  0  0  0
  -13.9659   -0.5893  -23.3443 Cl  0  0  0  0  0  0  0  0  0  0  0  0
  -11.3760   -0.7769  -23.2612 C   0  0  0  0  0  0  0  0  0  0  0  0
  1  2  2  0  0  0
  2  3  1  0  0  0
  3 20  1  0  0  0
 20 21  2  0  0  0
 21 22  1  0  0  0
 22 23  2  0  0  0
 23 24  1  0  0  0
 23 25  1  0  0  0
 25 26  1  0  0  0
 25 27  2  0  0  0
  3  4  1  0  0  0
  4  5  1  0  0  0
  5  6  1  0  0  0
  5  7  1  0  0  0
  7  8  1  0  0  0
  8 10  1  0  0  0
 10 11  2  0  0  0
 11 12  1  0  0  0
 12 13  2  0  0  0
 13 14  1  0  0  0
 14 15  2  0  0  0
 15 16  1  0  0  0
 16 17  2  0  0  0
 17 18  1  0  0  0
 18 19  2  0  0  0
  8  2  1  0  0  0
 19 10  1  0  0  0
 27 20  1  0  0  0
 19 14  1  0  0  0
  6  9  1  0  0  0
M  END
> <minimizedAffinity>
-6.93011

> <CNNscore>
0.5004225373

> <CNNaffinity>
5.5334768295

> <CNN_VS>
2.7690765858

> <CNNaffinity_variance>
0.0989431292

$$$$



 27 30  0  0  0  0  0  0  0  0999 V2000
   -6.6106    0.3292  -23.7107 O   0  0  0  0  0  0  0  0  0  0  0  0
   -6.4127   -0.2105  -22.3251 C   0  0  0  0  0  0  0  0  0  0  0  0
   -7.5962   -0.6518  -21.5161 C   0  0  0  0  0  0  0  0  0  0  0  0
   -7.3984   -1.1915  -20.1306 C   0  0  0  0  0  0  0  0  0  0  0  0
   -6.0171   -1.2898  -19.5541 C   0  0  0  0  0  0  0  0  0  0  0  0
   -5.8193   -1.8295  -18.1686 O   0  0  0  0  0  0  0  0  0  0  0  0
   -4.8336   -0.8485  -20.3632 C   0  0  0  0  0  0  0  0  0  0  0  0
   -5.0314   -0.3088  -21.7487 N   0  0  0  0  0  0  0  0  0  0  0  0
   -4.9260   -1.8931  -17.7959 H   0  0  0  0  0  0  0  0  0  0  0  0
   -3.8479    0.1326  -22.5578 C   0  0  0  0  0  0  0  0  0  0  0  0
   -3.7268   -0.2784  -23.9952 C   0  0  0  0  0  0  0  0  0  0  0  0
   -2.5433    0.1630  -24.8043 N   0  0  0  0  0  0  0  0  0  0  0  0
   -1.4810    1.0153  -24.1758 C   0  0  0  0  0  0  0  0  0  0  0  0
   -1.6021    1.4262  -22.7383 C   0  0  0  0  0  0  0  0  0  0  0  0
   -0.5397    2.2785  -22.1098 C   0  0  0  0  0  0  0  0  0  0  0  0
   -0.6609    2.6894  -20.6724 C   0  0  0  0  0  0  0  0  0  0  0  0
   -1.8444    2.2481  -19.8633 C   0  0  0  0  0  0  0  0  0  0  0  0
   -2.9067    1.3958  -20.4918 C   0  0  0  0  0  0  0  0  0  0  0  0
   -2.7856    0.9849  -21.9292 C   0  0  0  0  0  0  0  0  0  0  0  0
   -8.9776   -0.5535  -22.0926 C   0  0  0  0  0  0  0  0  0  0  0  0
   -9.5464    0.7870  -22.4524 C   0  0  0  0  0  0  0  0  0  0  0  0
  -10.9277    0.8854  -23.0288 C   0  0  0  0  0  0  0  0  0  0  0  0
  -11.7401   -0.3568  -23.2456 C   0  0  0  0  0  0  0  0  0  0  0  0
  -13.1214   -0.2584  -23.8221 Cl  0  0  0  0  0  0  0  0  0  0  0  0
  -11.1712   -1.6973  -22.8858 C   0  0  0  0  0  0  0  0  0  0  0  0
  -11.9837   -2.9395  -23.1026 Cl  0  0  0  0  0  0  0  0  0  0  0  0
   -9.7900   -1.7957  -22.3094 C   0  0  0  0  0  0  0  0  0  0  0  0
  1  2  2  0  0  0
  2  3  1  0  0  0
  3 20  1  0  0  0
 20 21  2  0  0  0
 21 22  1  0  0  0
 22 23  2  0  0  0
 23 24  1  0  0  0
 23 25  1  0  0  0
 25 26  1  0  0  0
 25 27  2  0  0  0
  3  4  1  0  0  0
  4  5  1  0  0  0
  5  6  1  0  0  0
  5  7  1  0  0  0
  7  8  1  0  0  0
  8 10  1  0  0  0
 10 11  2  0  0  0
 11 12  1  0  0  0
 12 13  2  0  0  0
 13 14  1  0  0  0
 14 15  2  0  0  0
 15 16  1  0  0  0
 16 17  2  0  0  0
 17 18  1  0  0  0
 18 19  2  0  0  0
  8  2  1  0  0  0
 19 10  1  0  0  0
 27 20  1  0  0  0
 19 14  1  0  0  0
  6  9  1  0  0  0
M  END
> <minimizedAffinity>
-7.48175

> <CNNscore>
0.4790942669

> <CNNaffinity>
5.5617380142

> <CNN_VS>
2.6645967960

> <CNNaffinity_variance>
0.0902007446

$$$$



 27 30  0  0  0  0  0  0  0  0999 V2000
   -6.7410    1.3965  -23.0790 O   0  0  0  0  0  0  0  0  0  0  0  0
   -6.4839    0.5258  -21.8849 C   0  0  0  0  0  0  0  0  0  0  0  0
   -7.5762   -0.3497  -21.3460 C   0  0  0  0  0  0  0  0  0  0  0  0
   -7.3191   -1.2204  -20.1520 C   0  0  0  0  0  0  0  0  0  0  0  0
   -5.9697   -1.2158  -19.4969 C   0  0  0  0  0  0  0  0  0  0  0  0
   -5.7126   -2.0865  -18.3029 O   0  0  0  0  0  0  0  0  0  0  0  0
   -4.8774   -0.3403  -20.0358 C   0  0  0  0  0  0  0  0  0  0  0  0
   -5.1345    0.5304  -21.2299 N   0  0  0  0  0  0  0  0  0  0  0  0
   -4.8400   -2.0835  -17.8793 H   0  0  0  0  0  0  0  0  0  0  0  0
   -4.0422    1.4059  -21.7688 C   0  0  0  0  0  0  0  0  0  0  0  0
   -3.6086    2.6210  -21.0037 C   0  0  0  0  0  0  0  0  0  0  0  0
   -2.5163    3.4965  -21.5427 N   0  0  0  0  0  0  0  0  0  0  0  0
   -1.8576    3.1568  -22.8467 C   0  0  0  0  0  0  0  0  0  0  0  0
   -2.2912    1.9416  -23.6119 C   0  0  0  0  0  0  0  0  0  0  0  0
   -1.6324    1.6019  -24.9160 C   0  0  0  0  0  0  0  0  0  0  0  0
   -2.0660    0.3868  -25.6811 C   0  0  0  0  0  0  0  0  0  0  0  0
   -3.1583   -0.4886  -25.1421 C   0  0  0  0  0  0  0  0  0  0  0  0
   -3.8170   -0.1490  -23.8381 C   0  0  0  0  0  0  0  0  0  0  0  0
   -3.3835    1.0662  -23.0730 C   0  0  0  0  0  0  0  0  0  0  0  0
   -8.9256   -0.3544  -22.0011 C   0  0  0  0  0  0  0  0  0  0  0  0
   -9.5774    0.9409  -22.3849 C   0  0  0  0  0  0  0  0  0  0  0  0
  -10.9268    0.9363  -23.0400 C   0  0  0  0  0  0  0  0  0  0  0  0
  -11.6243   -0.3636  -23.3112 C   0  0  0  0  0  0  0  0  0  0  0  0
  -12.9738   -0.3682  -23.9663 Cl  0  0  0  0  0  0  0  0  0  0  0  0
  -10.9725   -1.6589  -22.9274 C   0  0  0  0  0  0  0  0  0  0  0  0
  -11.6701   -2.9588  -23.1987 Cl  0  0  0  0  0  0  0  0  0  0  0  0
   -9.6231   -1.6543  -22.2723 C   0  0  0  0  0  0  0  0  0  0  0  0
  1  2  2  0  0  0
  2  3  1  0  0  0
  3 20  1  0  0  0
 20 21  2  0  0  0
 21 22  1  0  0  0
 22 23  2  0  0  0
 23 24  1  0  0  0
 23 25  1  0  0  0
 25 26  1  0  0  0
 25 27  2  0  0  0
  3  4  1  0  0  0
  4  5  1  0  0  0
  5  6  1  0  0  0
  5  7  1  0  0  0
  7  8  1  0  0  0
  8 10  1  0  0  0
 10 11  2  0  0  0
 11 12  1  0  0  0
 12 13  2  0  0  0
 13 14  1  0  0  0
 14 15  2  0  0  0
 15 16  1  0  0  0
 16 17  2  0  0  0
 17 18  1  0  0  0
 18 19  2  0  0  0
  8  2  1  0  0  0
 19 10  1  0  0  0
 27 20  1  0  0  0
 19 14  1  0  0  0
  6  9  1  0  0  0
M  END
> <minimizedAffinity>
-7.06022

> <CNNscore>
0.3939190209

> <CNNaffinity>
5.5964403152

> <CNN_VS>
2.2045443058

> <CNNaffinity_variance>
0.0845598206

$$$$



 27 30  0  0  0  0  0  0  0  0999 V2000
  -11.2913   -1.2681  -24.7495 O   0  0  0  0  0  0  0  0  0  0  0  0
  -10.2746   -0.9878  -23.6827 C   0  0  0  0  0  0  0  0  0  0  0  0
   -9.2640   -2.0340  -23.3165 C   0  0  0  0  0  0  0  0  0  0  0  0
   -8.2474   -1.7538  -22.2497 C   0  0  0  0  0  0  0  0  0  0  0  0
   -8.2414   -0.4274  -21.5492 C   0  0  0  0  0  0  0  0  0  0  0  0
   -7.2248   -0.1471  -20.4825 O   0  0  0  0  0  0  0  0  0  0  0  0
   -9.2521    0.6188  -21.9154 C   0  0  0  0  0  0  0  0  0  0  0  0
  -10.2687    0.3385  -22.9822 N   0  0  0  0  0  0  0  0  0  0  0  0
   -7.2210    0.7106  -20.0294 H   0  0  0  0  0  0  0  0  0  0  0  0
  -11.2794    1.3847  -23.3485 C   0  0  0  0  0  0  0  0  0  0  0  0
  -12.6792    1.2937  -22.8172 C   0  0  0  0  0  0  0  0  0  0  0  0
  -13.6898    2.3399  -23.1835 N   0  0  0  0  0  0  0  0  0  0  0  0
  -13.3007    3.4770  -24.0810 C   0  0  0  0  0  0  0  0  0  0  0  0
  -11.9009    3.5680  -24.6123 C   0  0  0  0  0  0  0  0  0  0  0  0
  -11.5117    4.7050  -25.5098 C   0  0  0  0  0  0  0  0  0  0  0  0
  -10.1120    4.7960  -26.0411 C   0  0  0  0  0  0  0  0  0  0  0  0
   -9.1013    3.7499  -25.6748 C   0  0  0  0  0  0  0  0  0  0  0  0
   -9.4904    2.6128  -24.7773 C   0  0  0  0  0  0  0  0  0  0  0  0
  -10.8902    2.5218  -24.2460 C   0  0  0  0  0  0  0  0  0  0  0  0
   -9.2699   -3.3604  -24.0170 C   0  0  0  0  0  0  0  0  0  0  0  0
  -10.3645   -3.6908  -24.9880 C   0  0  0  0  0  0  0  0  0  0  0  0
  -10.3705   -5.0171  -25.6886 C   0  0  0  0  0  0  0  0  0  0  0  0
   -9.2819   -6.0130  -25.4181 C   0  0  0  0  0  0  0  0  0  0  0  0
   -9.2879   -7.3394  -26.1187 Cl  0  0  0  0  0  0  0  0  0  0  0  0
   -8.1874   -5.6826  -24.4471 C   0  0  0  0  0  0  0  0  0  0  0  0
   -7.0988   -6.6786  -24.1767 Cl  0  0  0  0  0  0  0  0  0  0  0  0
   -8.1814   -4.3563  -23.7466 C   0  0  0  0  0  0  0  0  0  0  0  0
  1  2  2  0  0  0
  2  3  1  0  0  0
  3 20  1  0  0  0
 20 21  2  0  0  0
 21 22  1  0  0  0
 22 23  2  0  0  0
 23 24  1  0  0  0
 23 25  1  0  0  0
 25 26  1  0  0  0
 25 27  2  0  0  0
  3  4  1  0  0  0
  4  5  1  0  0  0
  5  6  1  0  0  0
  5  7  1  0  0  0
  7  8  1  0  0  0
  8 10  1  0  0  0
 10 11  2  0  0  0
 11 12  1  0  0  0
 12 13  2  0  0  0
 13 14  1  0  0  0
 14 15  2  0  0  0
 15 16  1  0  0  0
 16 17  2  0  0  0
 17 18  1  0  0  0
 18 19  2  0  0  0
  8  2  1  0  0  0
 19 10  1  0  0  0
 27 20  1  0  0  0
 19 14  1  0  0  0
  6  9  1  0  0  0
M  END
> <minimizedAffinity>
-7.13424

> <CNNscore>
0.3599727154

> <CNNaffinity>
5.6538152695

> <CNN_VS>
2.0352191925

> <CNNaffinity_variance>
0.1758515388

$$$$



 27 30  0  0  0  0  0  0  0  0999 V2000
   -8.8123    0.0915  -21.5690 O   0  0  0  0  0  0  0  0  0  0  0  0
   -8.3524   -0.8855  -22.6102 C   0  0  0  0  0  0  0  0  0  0  0  0
   -6.8874   -1.1470  -22.7982 C   0  0  0  0  0  0  0  0  0  0  0  0
   -6.4274   -2.1240  -23.8393 C   0  0  0  0  0  0  0  0  0  0  0  0
   -7.4325   -2.8394  -24.6925 C   0  0  0  0  0  0  0  0  0  0  0  0
   -6.9726   -3.8164  -25.7337 O   0  0  0  0  0  0  0  0  0  0  0  0
   -8.8975   -2.5779  -24.5046 C   0  0  0  0  0  0  0  0  0  0  0  0
   -9.3574   -1.6009  -23.4634 N   0  0  0  0  0  0  0  0  0  0  0  0
   -7.6225   -4.2790  -26.2854 H   0  0  0  0  0  0  0  0  0  0  0  0
  -10.8225   -1.3393  -23.2755 C   0  0  0  0  0  0  0  0  0  0  0  0
  -11.7304   -2.4458  -22.8270 C   0  0  0  0  0  0  0  0  0  0  0  0
  -13.1954   -2.1843  -22.6391 N   0  0  0  0  0  0  0  0  0  0  0  0
  -13.7525   -0.8162  -22.8997 C   0  0  0  0  0  0  0  0  0  0  0  0
  -12.8446    0.2904  -23.3482 C   0  0  0  0  0  0  0  0  0  0  0  0
  -13.4017    1.6585  -23.6089 C   0  0  0  0  0  0  0  0  0  0  0  0
  -12.4937    2.7650  -24.0574 C   0  0  0  0  0  0  0  0  0  0  0  0
  -11.0287    2.5035  -24.2453 C   0  0  0  0  0  0  0  0  0  0  0  0
  -10.4716    1.1354  -23.9847 C   0  0  0  0  0  0  0  0  0  0  0  0
  -11.3795    0.0289  -23.5362 C   0  0  0  0  0  0  0  0  0  0  0  0
   -5.8823   -0.4316  -21.9449 C   0  0  0  0  0  0  0  0  0  0  0  0
   -4.8898    0.4993  -22.5761 C   0  0  0  0  0  0  0  0  0  0  0  0
   -3.8847    1.2148  -21.7229 C   0  0  0  0  0  0  0  0  0  0  0  0
   -3.8722    0.9993  -20.2385 C   0  0  0  0  0  0  0  0  0  0  0  0
   -2.8671    1.7148  -19.3852 Cl  0  0  0  0  0  0  0  0  0  0  0  0
   -4.8647    0.0684  -19.6073 C   0  0  0  0  0  0  0  0  0  0  0  0
   -4.8521   -0.1470  -18.1229 Cl  0  0  0  0  0  0  0  0  0  0  0  0
   -5.8697   -0.6470  -20.4605 C   0  0  0  0  0  0  0  0  0  0  0  0
  1  2  2  0  0  0
  2  3  1  0  0  0
  3 20  1  0  0  0
 20 21  2  0  0  0
 21 22  1  0  0  0
 22 23  2  0  0  0
 23 24  1  0  0  0
 23 25  1  0  0  0
 25 26  1  0  0  0
 25 27  2  0  0  0
  3  4  1  0  0  0
  4  5  1  0  0  0
  5  6  1  0  0  0
  5  7  1  0  0  0
  7  8  1  0  0  0
  8 10  1  0  0  0
 10 11  2  0  0  0
 11 12  1  0  0  0
 12 13  2  0  0  0
 13 14  1  0  0  0
 14 15  2  0  0  0
 15 16  1  0  0  0
 16 17  2  0  0  0
 17 18  1  0  0  0
 18 19  2  0  0  0
  8  2  1  0  0  0
 19 10  1  0  0  0
 27 20  1  0  0  0
 19 14  1  0  0  0
  6  9  1  0  0  0
M  END
> <minimizedAffinity>
-7.55905

> <CNNscore>
0.3549989462

> <CNNaffinity>
5.4904365540

> <CNN_VS>
1.9490991831

> <CNNaffinity_variance>
0.1448972821

$$$$



 27 30  0  0  0  0  0  0  0  0999 V2000
   -8.6849    1.6248  -21.6343 O   0  0  0  0  0  0  0  0  0  0  0  0
   -8.9291    0.2283  -22.1245 C   0  0  0  0  0  0  0  0  0  0  0  0
  -10.0486   -0.0443  -23.0850 C   0  0  0  0  0  0  0  0  0  0  0  0
  -10.2929   -1.4407  -23.5752 C   0  0  0  0  0  0  0  0  0  0  0  0
   -9.4177   -2.5646  -23.1049 C   0  0  0  0  0  0  0  0  0  0  0  0
   -9.6620   -3.9610  -23.5952 O   0  0  0  0  0  0  0  0  0  0  0  0
   -8.2983   -2.2920  -22.1445 C   0  0  0  0  0  0  0  0  0  0  0  0
   -8.0540   -0.8955  -21.6543 N   0  0  0  0  0  0  0  0  0  0  0  0
   -9.0961   -4.6877  -23.2911 H   0  0  0  0  0  0  0  0  0  0  0  0
   -6.9345   -0.6229  -20.6938 C   0  0  0  0  0  0  0  0  0  0  0  0
   -7.0908   -0.9679  -19.2424 C   0  0  0  0  0  0  0  0  0  0  0  0
   -5.9713   -0.6953  -18.2820 N   0  0  0  0  0  0  0  0  0  0  0  0
   -4.6956   -0.0777  -18.7729 C   0  0  0  0  0  0  0  0  0  0  0  0
   -4.5393    0.2674  -20.2243 C   0  0  0  0  0  0  0  0  0  0  0  0
   -3.2636    0.8850  -20.7152 C   0  0  0  0  0  0  0  0  0  0  0  0
   -3.1073    1.2300  -22.1666 C   0  0  0  0  0  0  0  0  0  0  0  0
   -4.2268    0.9574  -23.1270 C   0  0  0  0  0  0  0  0  0  0  0  0
   -5.5025    0.3398  -22.6361 C   0  0  0  0  0  0  0  0  0  0  0  0
   -5.6588   -0.0052  -21.1848 C   0  0  0  0  0  0  0  0  0  0  0  0
  -10.9238    1.0795  -23.5552 C   0  0  0  0  0  0  0  0  0  0  0  0
  -12.3837    1.0879  -23.2106 C   0  0  0  0  0  0  0  0  0  0  0  0
  -13.2588    2.2117  -23.6808 C   0  0  0  0  0  0  0  0  0  0  0  0
  -12.6741    3.3271  -24.4956 C   0  0  0  0  0  0  0  0  0  0  0  0
  -13.5493    4.4510  -24.9658 Cl  0  0  0  0  0  0  0  0  0  0  0  0
  -11.2143    3.3187  -24.8402 C   0  0  0  0  0  0  0  0  0  0  0  0
  -10.6296    4.4343  -25.6550 Cl  0  0  0  0  0  0  0  0  0  0  0  0
  -10.3391    2.1950  -24.3700 C   0  0  0  0  0  0  0  0  0  0  0  0
  1  2  2  0  0  0
  2  3  1  0  0  0
  3 20  1  0  0  0
 20 21  2  0  0  0
 21 22  1  0  0  0
 22 23  2  0  0  0
 23 24  1  0  0  0
 23 25  1  0  0  0
 25 26  1  0  0  0
 25 27  2  0  0  0
  3  4  1  0  0  0
  4  5  1  0  0  0
  5  6  1  0  0  0
  5  7  1  0  0  0
  7  8  1  0  0  0
  8 10  1  0  0  0
 10 11  2  0  0  0
 11 12  1  0  0  0
 12 13  2  0  0  0
 13 14  1  0  0  0
 14 15  2  0  0  0
 15 16  1  0  0  0
 16 17  2  0  0  0
 17 18  1  0  0  0
 18 19  2  0  0  0
  8  2  1  0  0  0
 19 10  1  0  0  0
 27 20  1  0  0  0
 19 14  1  0  0  0
  6  9  1  0  0  0
M  END
> <minimizedAffinity>
-7.51599

> <CNNscore>
0.3452104032

> <CNNaffinity>
5.3872299194

> <CNN_VS>
1.8597278595

> <CNNaffinity_variance>
0.1012035161

$$$$



 27 30  0  0  0  0  0  0  0  0999 V2000
   -8.9530   -0.3236  -24.1677 O   0  0  0  0  0  0  0  0  0  0  0  0
  -10.2200   -0.9377  -23.6502 C   0  0  0  0  0  0  0  0  0  0  0  0
  -11.4385   -0.0862  -23.4492 C   0  0  0  0  0  0  0  0  0  0  0  0
  -12.7054   -0.7002  -22.9317 C   0  0  0  0  0  0  0  0  0  0  0  0
  -12.7539   -2.1657  -22.6152 C   0  0  0  0  0  0  0  0  0  0  0  0
  -14.0209   -2.7797  -22.0977 O   0  0  0  0  0  0  0  0  0  0  0  0
  -11.5355   -3.0171  -22.8162 C   0  0  0  0  0  0  0  0  0  0  0  0
  -10.2685   -2.4031  -23.3337 N   0  0  0  0  0  0  0  0  0  0  0  0
  -14.0522   -3.7273  -21.8930 H   0  0  0  0  0  0  0  0  0  0  0  0
   -9.0500   -3.2545  -23.5348 C   0  0  0  0  0  0  0  0  0  0  0  0
   -7.8338   -3.0361  -22.6844 C   0  0  0  0  0  0  0  0  0  0  0  0
   -6.6154   -3.8875  -22.8854 N   0  0  0  0  0  0  0  0  0  0  0  0
   -6.6131   -4.9573  -23.9368 C   0  0  0  0  0  0  0  0  0  0  0  0
   -7.8293   -5.1757  -24.7873 C   0  0  0  0  0  0  0  0  0  0  0  0
   -7.8270   -6.2455  -25.8387 C   0  0  0  0  0  0  0  0  0  0  0  0
   -9.0431   -6.4638  -26.6891 C   0  0  0  0  0  0  0  0  0  0  0  0
  -10.2616   -5.6124  -26.4881 C   0  0  0  0  0  0  0  0  0  0  0  0
  -10.2639   -4.5426  -25.4366 C   0  0  0  0  0  0  0  0  0  0  0  0
   -9.0477   -4.3243  -24.5863 C   0  0  0  0  0  0  0  0  0  0  0  0
  -11.3900    1.3792  -23.7657 C   0  0  0  0  0  0  0  0  0  0  0  0
  -10.1891    1.9588  -24.4527 C   0  0  0  0  0  0  0  0  0  0  0  0
  -10.1405    3.4242  -24.7692 C   0  0  0  0  0  0  0  0  0  0  0  0
  -11.2929    4.3100  -24.3987 C   0  0  0  0  0  0  0  0  0  0  0  0
  -11.2444    5.7755  -24.7151 Cl  0  0  0  0  0  0  0  0  0  0  0  0
  -12.4938    3.7305  -23.7116 C   0  0  0  0  0  0  0  0  0  0  0  0
  -13.6461    4.6164  -23.3411 Cl  0  0  0  0  0  0  0  0  0  0  0  0
  -12.5423    2.2651  -23.3951 C   0  0  0  0  0  0  0  0  0  0  0  0
  1  2  2  0  0  0
  2  3  1  0  0  0
  3 20  1  0  0  0
 20 21  2  0  0  0
 21 22  1  0  0  0
 22 23  2  0  0  0
 23 24  1  0  0  0
 23 25  1  0  0  0
 25 26  1  0  0  0
 25 27  2  0  0  0
  3  4  1  0  0  0
  4  5  1  0  0  0
  5  6  1  0  0  0
  5  7  1  0  0  0
  7  8  1  0  0  0
  8 10  1  0  0  0
 10 11  2  0  0  0
 11 12  1  0  0  0
 12 13  2  0  0  0
 13 14  1  0  0  0
 14 15  2  0  0  0
 15 16  1  0  0  0
 16 17  2  0  0  0
 17 18  1  0  0  0
 18 19  2  0  0  0
  8  2  1  0  0  0
 19 10  1  0  0  0
 27 20  1  0  0  0
 19 14  1  0  0  0
  6  9  1  0  0  0
M  END
> <minimizedAffinity>
-7.48437

> <CNNscore>
0.2993226349

> <CNNaffinity>
5.6254653931

> <CNN_VS>
1.6838290691

> <CNNaffinity_variance>
0.1682835072

$$$$



 27 30  0  0  0  0  0  0  0  0999 V2000
   -8.1893    1.9713  -21.8385 O   0  0  0  0  0  0  0  0  0  0  0  0
   -8.5973    0.5785  -22.2175 C   0  0  0  0  0  0  0  0  0  0  0  0
   -9.6654    0.3642  -23.2486 C   0  0  0  0  0  0  0  0  0  0  0  0
  -10.0734   -1.0286  -23.6276 C   0  0  0  0  0  0  0  0  0  0  0  0
   -9.4133   -2.2072  -22.9754 C   0  0  0  0  0  0  0  0  0  0  0  0
   -9.8213   -3.5999  -23.3544 O   0  0  0  0  0  0  0  0  0  0  0  0
   -8.3452   -1.9929  -21.9442 C   0  0  0  0  0  0  0  0  0  0  0  0
   -7.9372   -0.6000  -21.5653 N   0  0  0  0  0  0  0  0  0  0  0  0
   -9.3945   -4.3621  -22.9326 H   0  0  0  0  0  0  0  0  0  0  0  0
   -6.8692   -0.3858  -20.5341 C   0  0  0  0  0  0  0  0  0  0  0  0
   -7.1255   -0.7503  -19.1019 C   0  0  0  0  0  0  0  0  0  0  0  0
   -6.0574   -0.5361  -18.0707 N   0  0  0  0  0  0  0  0  0  0  0  0
   -4.7330    0.0428  -18.4718 C   0  0  0  0  0  0  0  0  0  0  0  0
   -4.4767    0.4074  -19.9041 C   0  0  0  0  0  0  0  0  0  0  0  0
   -3.1523    0.9863  -20.3052 C   0  0  0  0  0  0  0  0  0  0  0  0
   -2.8960    1.3509  -21.7374 C   0  0  0  0  0  0  0  0  0  0  0  0
   -3.9641    1.1366  -22.7686 C   0  0  0  0  0  0  0  0  0  0  0  0
   -5.2884    0.5577  -22.3675 C   0  0  0  0  0  0  0  0  0  0  0  0
   -5.5447    0.1931  -20.9353 C   0  0  0  0  0  0  0  0  0  0  0  0
  -10.3255    1.5428  -23.9008 C   0  0  0  0  0  0  0  0  0  0  0  0
   -9.5978    2.3204  -24.9571 C   0  0  0  0  0  0  0  0  0  0  0  0
  -10.2578    3.4989  -25.6093 C   0  0  0  0  0  0  0  0  0  0  0  0
  -11.6455    3.8999  -25.2052 C   0  0  0  0  0  0  0  0  0  0  0  0
  -12.3056    5.0785  -25.8574 Cl  0  0  0  0  0  0  0  0  0  0  0  0
  -12.3732    3.1223  -24.1489 C   0  0  0  0  0  0  0  0  0  0  0  0
  -13.7610    3.5233  -23.7448 Cl  0  0  0  0  0  0  0  0  0  0  0  0
  -11.7132    1.9438  -23.4967 C   0  0  0  0  0  0  0  0  0  0  0  0
  1  2  2  0  0  0
  2  3  1  0  0  0
  3 20  1  0  0  0
 20 21  2  0  0  0
 21 22  1  0  0  0
 22 23  2  0  0  0
 23 24  1  0  0  0
 23 25  1  0  0  0
 25 26  1  0  0  0
 25 27  2  0  0  0
  3  4  1  0  0  0
  4  5  1  0  0  0
  5  6  1  0  0  0
  5  7  1  0  0  0
  7  8  1  0  0  0
  8 10  1  0  0  0
 10 11  2  0  0  0
 11 12  1  0  0  0
 12 13  2  0  0  0
 13 14  1  0  0  0
 14 15  2  0  0  0
 15 16  1  0  0  0
 16 17  2  0  0  0
 17 18  1  0  0  0
 18 19  2  0  0  0
  8  2  1  0  0  0
 19 10  1  0  0  0
 27 20  1  0  0  0
 19 14  1  0  0  0
  6  9  1  0  0  0
M  END
> <minimizedAffinity>
-7.31906

> <CNNscore>
0.2816747427

> <CNNaffinity>
5.3431463242

> <CNN_VS>
1.5050293207

> <CNNaffinity_variance>
0.1285939068

$$$$
