


 22 24  0  0  0  0  0  0  0  0999 V2000
   -5.3880   -3.9492  -21.0190 O   0  0  0  0  0  0  0  0  0  0  0  0
   -6.3666   -3.2511  -21.9162 C   0  0  0  0  0  0  0  0  0  0  0  0
   -7.1490   -4.0357  -22.9272 N   0  0  0  0  0  0  0  0  0  0  0  0
   -8.1276   -3.3377  -23.8245 C   0  0  0  0  0  0  0  0  0  0  0  0
   -8.9100   -4.1224  -24.8355 C   0  0  0  0  0  0  0  0  0  0  0  0
   -8.7138   -5.6051  -24.9493 C   0  0  0  0  0  0  0  0  0  0  0  0
   -7.7352   -6.3032  -24.0520 C   0  0  0  0  0  0  0  0  0  0  0  0
   -6.9528   -5.5185  -23.0410 C   0  0  0  0  0  0  0  0  0  0  0  0
   -9.4962   -6.3898  -25.9603 C   0  0  0  0  0  0  0  0  0  0  0  0
   -8.8112   -7.4309  -26.7951 F   0  0  0  0  0  0  0  0  0  0  0  0
  -10.9636   -6.1333  -26.1366 F   0  0  0  0  0  0  0  0  0  0  0  0
   -6.5628   -1.7683  -21.8024 C   0  0  0  0  0  0  0  0  0  0  0  0
   -6.0709   -1.0377  -20.5883 C   0  0  0  0  0  0  0  0  0  0  0  0
   -6.7784   -1.2023  -19.2760 C   0  0  0  0  0  0  0  0  0  0  0  0
   -6.2864   -0.4716  -18.0619 N   0  0  0  0  0  0  0  0  0  0  0  0
   -5.0869    0.4236  -18.1601 C   0  0  0  0  0  0  0  0  0  0  0  0
   -4.3793    0.5883  -19.4725 C   0  0  0  0  0  0  0  0  0  0  0  0
   -3.1799    1.4835  -19.5707 C   0  0  0  0  0  0  0  0  0  0  0  0
   -2.4723    1.6481  -20.8830 C   0  0  0  0  0  0  0  0  0  0  0  0
   -2.9643    0.9175  -22.0971 C   0  0  0  0  0  0  0  0  0  0  0  0
   -4.1638    0.0222  -21.9989 C   0  0  0  0  0  0  0  0  0  0  0  0
   -4.8713   -0.1424  -20.6866 C   0  0  0  0  0  0  0  0  0  0  0  0
  1  2  2  0  0  0
  2 12  1  0  0  0
 12 13  1  0  0  0
 13 14  2  0  0  0
 14 15  1  0  0  0
 15 16  2  0  0  0
 16 17  1  0  0  0
 17 18  2  0  0  0
 18 19  1  0  0  0
 19 20  2  0  0  0
 20 21  1  0  0  0
 21 22  2  0  0  0
  2  3  1  0  0  0
  3  4  1  0  0  0
  4  5  1  0  0  0
  5  6  1  0  0  0
  6  9  1  0  0  0
  9 10  1  0  0  0
  9 11  1  0  0  0
  6  7  1  0  0  0
  7  8  1  0  0  0
 22 13  1  0  0  0
  8  3  1  0  0  0
 22 17  1  0  0  0
M  END
> <minimizedAffinity>
-7.23890

> <CNNscore>
0.7035293579

> <CNNaffinity>
5.1744241714

> <CNN_VS>
3.6403594017

> <CNNaffinity_variance>
0.2928893566

$$$$



 22 24  0  0  0  0  0  0  0  0999 V2000
   -8.6673   -1.1598  -21.6240 O   0  0  0  0  0  0  0  0  0  0  0  0
   -7.7596   -2.2519  -22.1072 C   0  0  0  0  0  0  0  0  0  0  0  0
   -8.2415   -3.2244  -23.1426 N   0  0  0  0  0  0  0  0  0  0  0  0
   -7.3339   -4.3165  -23.6258 C   0  0  0  0  0  0  0  0  0  0  0  0
   -7.8158   -5.2890  -24.6611 C   0  0  0  0  0  0  0  0  0  0  0  0
   -9.2053   -5.1695  -25.2132 C   0  0  0  0  0  0  0  0  0  0  0  0
  -10.1130   -4.0774  -24.7300 C   0  0  0  0  0  0  0  0  0  0  0  0
   -9.6311   -3.1048  -23.6947 C   0  0  0  0  0  0  0  0  0  0  0  0
   -9.6872   -6.1420  -26.2486 C   0  0  0  0  0  0  0  0  0  0  0  0
   -9.5226   -7.6164  -26.0269 F   0  0  0  0  0  0  0  0  0  0  0  0
  -10.3338   -5.6402  -27.5056 F   0  0  0  0  0  0  0  0  0  0  0  0
   -6.3701   -2.3714  -21.5551 C   0  0  0  0  0  0  0  0  0  0  0  0
   -5.9213   -1.4618  -20.4500 C   0  0  0  0  0  0  0  0  0  0  0  0
   -6.5220   -1.5910  -19.0817 C   0  0  0  0  0  0  0  0  0  0  0  0
   -6.0732   -0.6814  -17.9766 N   0  0  0  0  0  0  0  0  0  0  0  0
   -5.0237    0.3574  -18.2399 C   0  0  0  0  0  0  0  0  0  0  0  0
   -4.4229    0.4867  -19.6083 C   0  0  0  0  0  0  0  0  0  0  0  0
   -3.3734    1.5255  -19.8716 C   0  0  0  0  0  0  0  0  0  0  0  0
   -2.7727    1.6547  -21.2399 C   0  0  0  0  0  0  0  0  0  0  0  0
   -3.2215    0.7450  -22.3450 C   0  0  0  0  0  0  0  0  0  0  0  0
   -4.2710   -0.2938  -22.0817 C   0  0  0  0  0  0  0  0  0  0  0  0
   -4.8717   -0.4230  -20.7134 C   0  0  0  0  0  0  0  0  0  0  0  0
  1  2  2  0  0  0
  2 12  1  0  0  0
 12 13  1  0  0  0
 13 14  2  0  0  0
 14 15  1  0  0  0
 15 16  2  0  0  0
 16 17  1  0  0  0
 17 18  2  0  0  0
 18 19  1  0  0  0
 19 20  2  0  0  0
 20 21  1  0  0  0
 21 22  2  0  0  0
  2  3  1  0  0  0
  3  4  1  0  0  0
  4  5  1  0  0  0
  5  6  1  0  0  0
  6  9  1  0  0  0
  9 10  1  0  0  0
  9 11  1  0  0  0
  6  7  1  0  0  0
  7  8  1  0  0  0
 22 13  1  0  0  0
  8  3  1  0  0  0
 22 17  1  0  0  0
M  END
> <minimizedAffinity>
-6.94772

> <CNNscore>
0.6766582727

> <CNNaffinity>
5.1048760414

> <CNN_VS>
3.4542565346

> <CNNaffinity_variance>
0.2774348259

$$$$



 22 24  0  0  0  0  0  0  0  0999 V2000
   -5.0167   -3.5260  -19.5537 O   0  0  0  0  0  0  0  0  0  0  0  0
   -5.7524   -3.0066  -20.7533 C   0  0  0  0  0  0  0  0  0  0  0  0
   -6.0896   -3.9317  -21.8848 N   0  0  0  0  0  0  0  0  0  0  0  0
   -6.8252   -3.4124  -23.0844 C   0  0  0  0  0  0  0  0  0  0  0  0
   -7.1625   -4.3376  -24.2159 C   0  0  0  0  0  0  0  0  0  0  0  0
   -6.7641   -5.7821  -24.1479 C   0  0  0  0  0  0  0  0  0  0  0  0
   -6.0285   -6.3015  -22.9482 C   0  0  0  0  0  0  0  0  0  0  0  0
   -5.6912   -5.3763  -21.8167 C   0  0  0  0  0  0  0  0  0  0  0  0
   -7.1014   -6.7072  -25.2794 C   0  0  0  0  0  0  0  0  0  0  0  0
   -8.5314   -7.0690  -25.5516 F   0  0  0  0  0  0  0  0  0  0  0  0
   -6.0085   -7.2707  -26.1387 F   0  0  0  0  0  0  0  0  0  0  0  0
   -6.1507   -1.5621  -20.8214 C   0  0  0  0  0  0  0  0  0  0  0  0
   -5.1568   -0.4929  -20.4766 C   0  0  0  0  0  0  0  0  0  0  0  0
   -5.0558    0.0110  -19.0674 C   0  0  0  0  0  0  0  0  0  0  0  0
   -4.0618    1.0801  -18.7226 N   0  0  0  0  0  0  0  0  0  0  0  0
   -3.1689    1.6455  -19.7869 C   0  0  0  0  0  0  0  0  0  0  0  0
   -3.2698    1.1417  -21.1962 C   0  0  0  0  0  0  0  0  0  0  0  0
   -2.3769    1.7071  -22.2606 C   0  0  0  0  0  0  0  0  0  0  0  0
   -2.4779    1.2032  -23.6698 C   0  0  0  0  0  0  0  0  0  0  0  0
   -3.4719    0.1340  -24.0147 C   0  0  0  0  0  0  0  0  0  0  0  0
   -4.3648   -0.4313  -22.9503 C   0  0  0  0  0  0  0  0  0  0  0  0
   -4.2638    0.0725  -21.5411 C   0  0  0  0  0  0  0  0  0  0  0  0
  1  2  2  0  0  0
  2 12  1  0  0  0
 12 13  1  0  0  0
 13 14  2  0  0  0
 14 15  1  0  0  0
 15 16  2  0  0  0
 16 17  1  0  0  0
 17 18  2  0  0  0
 18 19  1  0  0  0
 19 20  2  0  0  0
 20 21  1  0  0  0
 21 22  2  0  0  0
  2  3  1  0  0  0
  3  4  1  0  0  0
  4  5  1  0  0  0
  5  6  1  0  0  0
  6  9  1  0  0  0
  9 10  1  0  0  0
  9 11  1  0  0  0
  6  7  1  0  0  0
  7  8  1  0  0  0
 22 13  1  0  0  0
  8  3  1  0  0  0
 22 17  1  0  0  0
M  END
> <minimizedAffinity>
-6.42169

> <CNNscore>
0.5539077520

> <CNNaffinity>
4.7131757736

> <CNN_VS>
2.6106646061

> <CNNaffinity_variance>
0.3429121375

$$$$



 22 24  0  0  0  0  0  0  0  0999 V2000
   -7.5733   -3.9765  -22.5622 O   0  0  0  0  0  0  0  0  0  0  0  0
   -7.7407   -2.4879  -22.6413 C   0  0  0  0  0  0  0  0  0  0  0  0
   -9.1025   -1.8968  -22.8562 N   0  0  0  0  0  0  0  0  0  0  0  0
   -9.2700   -0.4083  -22.9353 C   0  0  0  0  0  0  0  0  0  0  0  0
  -10.6317    0.1829  -23.1503 C   0  0  0  0  0  0  0  0  0  0  0  0
  -11.8260   -0.7145  -23.2862 C   0  0  0  0  0  0  0  0  0  0  0  0
  -11.6585   -2.2031  -23.2071 C   0  0  0  0  0  0  0  0  0  0  0  0
  -10.2968   -2.7942  -22.9921 C   0  0  0  0  0  0  0  0  0  0  0  0
  -13.1877   -0.1233  -23.5011 C   0  0  0  0  0  0  0  0  0  0  0  0
  -14.4133   -0.9347  -23.2020 F   0  0  0  0  0  0  0  0  0  0  0  0
  -13.3238    1.2793  -24.0153 F   0  0  0  0  0  0  0  0  0  0  0  0
   -6.5465   -1.5906  -22.5054 C   0  0  0  0  0  0  0  0  0  0  0  0
   -6.1723   -1.0383  -21.1618 C   0  0  0  0  0  0  0  0  0  0  0  0
   -7.0089   -1.3603  -19.9592 C   0  0  0  0  0  0  0  0  0  0  0  0
   -6.6347   -0.8080  -18.6157 N   0  0  0  0  0  0  0  0  0  0  0  0
   -5.4240    0.0662  -18.4748 C   0  0  0  0  0  0  0  0  0  0  0  0
   -4.5873    0.3881  -19.6776 C   0  0  0  0  0  0  0  0  0  0  0  0
   -3.3766    1.2623  -19.5367 C   0  0  0  0  0  0  0  0  0  0  0  0
   -2.5400    1.5842  -20.7394 C   0  0  0  0  0  0  0  0  0  0  0  0
   -2.9142    1.0320  -22.0829 C   0  0  0  0  0  0  0  0  0  0  0  0
   -4.1249    0.1578  -22.2237 C   0  0  0  0  0  0  0  0  0  0  0  0
   -4.9615   -0.1641  -21.0211 C   0  0  0  0  0  0  0  0  0  0  0  0
  1  2  2  0  0  0
  2 12  1  0  0  0
 12 13  1  0  0  0
 13 14  2  0  0  0
 14 15  1  0  0  0
 15 16  2  0  0  0
 16 17  1  0  0  0
 17 18  2  0  0  0
 18 19  1  0  0  0
 19 20  2  0  0  0
 20 21  1  0  0  0
 21 22  2  0  0  0
  2  3  1  0  0  0
  3  4  1  0  0  0
  4  5  1  0  0  0
  5  6  1  0  0  0
  6  9  1  0  0  0
  9 10  1  0  0  0
  9 11  1  0  0  0
  6  7  1  0  0  0
  7  8  1  0  0  0
 22 13  1  0  0  0
  8  3  1  0  0  0
 22 17  1  0  0  0
M  END
> <minimizedAffinity>
-7.12653

> <CNNscore>
0.5508965254

> <CNNaffinity>
5.1244688034

> <CNN_VS>
2.8230521679

> <CNNaffinity_variance>
0.4785157144

$$$$



 22 24  0  0  0  0  0  0  0  0999 V2000
   -8.2826   -0.2666  -20.9846 O   0  0  0  0  0  0  0  0  0  0  0  0
   -7.4557   -1.4823  -21.2822 C   0  0  0  0  0  0  0  0  0  0  0  0
   -7.9116   -2.4635  -22.3212 N   0  0  0  0  0  0  0  0  0  0  0  0
   -7.0848   -3.6791  -22.6188 C   0  0  0  0  0  0  0  0  0  0  0  0
   -7.5407   -4.6603  -23.6577 C   0  0  0  0  0  0  0  0  0  0  0  0
   -8.8235   -4.4259  -24.3990 C   0  0  0  0  0  0  0  0  0  0  0  0
   -9.6504   -3.2103  -24.1014 C   0  0  0  0  0  0  0  0  0  0  0  0
   -9.1944   -2.2290  -23.0625 C   0  0  0  0  0  0  0  0  0  0  0  0
   -9.2794   -5.4071  -25.4379 C   0  0  0  0  0  0  0  0  0  0  0  0
   -8.3550   -6.4945  -25.8994 F   0  0  0  0  0  0  0  0  0  0  0  0
  -10.6598   -5.3009  -26.0153 F   0  0  0  0  0  0  0  0  0  0  0  0
   -6.1729   -1.7167  -20.5409 C   0  0  0  0  0  0  0  0  0  0  0  0
   -5.2052   -0.5881  -20.3410 C   0  0  0  0  0  0  0  0  0  0  0  0
   -5.0181    0.0065  -18.9767 C   0  0  0  0  0  0  0  0  0  0  0  0
   -4.0504    1.1351  -18.7768 N   0  0  0  0  0  0  0  0  0  0  0  0
   -3.2698    1.6689  -19.9411 C   0  0  0  0  0  0  0  0  0  0  0  0
   -3.4570    1.0743  -21.3055 C   0  0  0  0  0  0  0  0  0  0  0  0
   -2.6765    1.6081  -22.4698 C   0  0  0  0  0  0  0  0  0  0  0  0
   -2.8636    1.0134  -23.8341 C   0  0  0  0  0  0  0  0  0  0  0  0
   -3.8313   -0.1151  -24.0340 C   0  0  0  0  0  0  0  0  0  0  0  0
   -4.6118   -0.6490  -22.8697 C   0  0  0  0  0  0  0  0  0  0  0  0
   -4.4247   -0.0543  -21.5054 C   0  0  0  0  0  0  0  0  0  0  0  0
  1  2  2  0  0  0
  2 12  1  0  0  0
 12 13  1  0  0  0
 13 14  2  0  0  0
 14 15  1  0  0  0
 15 16  2  0  0  0
 16 17  1  0  0  0
 17 18  2  0  0  0
 18 19  1  0  0  0
 19 20  2  0  0  0
 20 21  1  0  0  0
 21 22  2  0  0  0
  2  3  1  0  0  0
  3  4  1  0  0  0
  4  5  1  0  0  0
  5  6  1  0  0  0
  6  9  1  0  0  0
  9 10  1  0  0  0
  9 11  1  0  0  0
  6  7  1  0  0  0
  7  8  1  0  0  0
 22 13  1  0  0  0
  8  3  1  0  0  0
 22 17  1  0  0  0
M  END
> <minimizedAffinity>
-6.11728

> <CNNscore>
0.4025455117

> <CNNaffinity>
4.7341041565

> <CNN_VS>
1.9056923389

> <CNNaffinity_variance>
0.2233447284

$$$$



 22 24  0  0  0  0  0  0  0  0999 V2000
   -7.6541   -1.0464  -19.9494 O   0  0  0  0  0  0  0  0  0  0  0  0
   -7.1952   -0.0442  -20.9669 C   0  0  0  0  0  0  0  0  0  0  0  0
   -5.8845    0.6623  -20.7856 N   0  0  0  0  0  0  0  0  0  0  0  0
   -5.4256    1.6644  -21.8030 C   0  0  0  0  0  0  0  0  0  0  0  0
   -4.1149    2.3709  -21.6218 C   0  0  0  0  0  0  0  0  0  0  0  0
   -3.2630    2.0753  -20.4231 C   0  0  0  0  0  0  0  0  0  0  0  0
   -3.7219    1.0731  -19.4056 C   0  0  0  0  0  0  0  0  0  0  0  0
   -5.0326    0.3666  -19.5868 C   0  0  0  0  0  0  0  0  0  0  0  0
   -1.9523    2.7818  -20.2418 C   0  0  0  0  0  0  0  0  0  0  0  0
   -1.7628    4.1639  -20.7929 F   0  0  0  0  0  0  0  0  0  0  0  0
   -0.8311    2.1061  -19.5094 F   0  0  0  0  0  0  0  0  0  0  0  0
   -8.0471    0.2514  -22.1656 C   0  0  0  0  0  0  0  0  0  0  0  0
   -9.1689   -0.6734  -22.5349 C   0  0  0  0  0  0  0  0  0  0  0  0
   -8.9476   -2.1570  -22.5384 C   0  0  0  0  0  0  0  0  0  0  0  0
  -10.0694   -3.0817  -22.9078 N   0  0  0  0  0  0  0  0  0  0  0  0
  -11.4124   -2.5229  -23.2737 C   0  0  0  0  0  0  0  0  0  0  0  0
  -11.6337   -1.0393  -23.2702 C   0  0  0  0  0  0  0  0  0  0  0  0
  -12.9768   -0.4805  -23.6362 C   0  0  0  0  0  0  0  0  0  0  0  0
  -13.1980    1.0030  -23.6327 C   0  0  0  0  0  0  0  0  0  0  0  0
  -12.0762    1.9278  -23.2634 C   0  0  0  0  0  0  0  0  0  0  0  0
  -10.7332    1.3690  -22.8974 C   0  0  0  0  0  0  0  0  0  0  0  0
  -10.5119   -0.1145  -22.9009 C   0  0  0  0  0  0  0  0  0  0  0  0
  1  2  2  0  0  0
  2 12  1  0  0  0
 12 13  1  0  0  0
 13 14  2  0  0  0
 14 15  1  0  0  0
 15 16  2  0  0  0
 16 17  1  0  0  0
 17 18  2  0  0  0
 18 19  1  0  0  0
 19 20  2  0  0  0
 20 21  1  0  0  0
 21 22  2  0  0  0
  2  3  1  0  0  0
  3  4  1  0  0  0
  4  5  1  0  0  0
  5  6  1  0  0  0
  6  9  1  0  0  0
  9 10  1  0  0  0
  9 11  1  0  0  0
  6  7  1  0  0  0
  7  8  1  0  0  0
 22 13  1  0  0  0
  8  3  1  0  0  0
 22 17  1  0  0  0
M  END
> <minimizedAffinity>
-6.72628

> <CNNscore>
0.3860864341

> <CNNaffinity>
4.5292887688

> <CNN_VS>
1.7486969233

> <CNNaffinity_variance>
0.3694491684

$$$$



 22 24  0  0  0  0  0  0  0  0999 V2000
   -6.8320    0.3370  -24.3293 O   0  0  0  0  0  0  0  0  0  0  0  0
   -7.3642   -0.6173  -23.3017 C   0  0  0  0  0  0  0  0  0  0  0  0
   -7.4396   -2.0838  -23.6078 N   0  0  0  0  0  0  0  0  0  0  0  0
   -7.9718   -3.0381  -22.5802 C   0  0  0  0  0  0  0  0  0  0  0  0
   -8.0472   -4.5046  -22.8864 C   0  0  0  0  0  0  0  0  0  0  0  0
   -7.5904   -5.0168  -24.2202 C   0  0  0  0  0  0  0  0  0  0  0  0
   -7.0581   -4.0625  -25.2478 C   0  0  0  0  0  0  0  0  0  0  0  0
   -6.9827   -2.5960  -24.9417 C   0  0  0  0  0  0  0  0  0  0  0  0
   -7.6658   -6.4833  -24.5263 C   0  0  0  0  0  0  0  0  0  0  0  0
   -8.1340   -7.4457  -23.4755 F   0  0  0  0  0  0  0  0  0  0  0  0
   -7.2729   -6.9873  -25.8835 F   0  0  0  0  0  0  0  0  0  0  0  0
   -7.8210   -0.1052  -21.9679 C   0  0  0  0  0  0  0  0  0  0  0  0
   -6.9155   -0.2042  -20.7762 C   0  0  0  0  0  0  0  0  0  0  0  0
   -7.2426   -1.1543  -19.6626 C   0  0  0  0  0  0  0  0  0  0  0  0
   -6.3370   -1.2534  -18.4709 N   0  0  0  0  0  0  0  0  0  0  0  0
   -5.1043   -0.4024  -18.3928 C   0  0  0  0  0  0  0  0  0  0  0  0
   -4.7771    0.5478  -19.5065 C   0  0  0  0  0  0  0  0  0  0  0  0
   -3.5444    1.3989  -19.4285 C   0  0  0  0  0  0  0  0  0  0  0  0
   -3.2173    2.3490  -20.5421 C   0  0  0  0  0  0  0  0  0  0  0  0
   -4.1229    2.4480  -21.7338 C   0  0  0  0  0  0  0  0  0  0  0  0
   -5.3556    1.5970  -21.8118 C   0  0  0  0  0  0  0  0  0  0  0  0
   -5.6827    0.6469  -20.6982 C   0  0  0  0  0  0  0  0  0  0  0  0
  1  2  2  0  0  0
  2 12  1  0  0  0
 12 13  1  0  0  0
 13 14  2  0  0  0
 14 15  1  0  0  0
 15 16  2  0  0  0
 16 17  1  0  0  0
 17 18  2  0  0  0
 18 19  1  0  0  0
 19 20  2  0  0  0
 20 21  1  0  0  0
 21 22  2  0  0  0
  2  3  1  0  0  0
  3  4  1  0  0  0
  4  5  1  0  0  0
  5  6  1  0  0  0
  6  9  1  0  0  0
  9 10  1  0  0  0
  9 11  1  0  0  0
  6  7  1  0  0  0
  7  8  1  0  0  0
 22 13  1  0  0  0
  8  3  1  0  0  0
 22 17  1  0  0  0
M  END
> <minimizedAffinity>
-6.40069

> <CNNscore>
0.3510668278

> <CNNaffinity>
5.0262413025

> <CNN_VS>
1.7645466328

> <CNNaffinity_variance>
0.1731432527

$$$$



 22 24  0  0  0  0  0  0  0  0999 V2000
   -8.7219   -1.1622  -25.3951 O   0  0  0  0  0  0  0  0  0  0  0  0
   -8.5665   -0.2340  -24.2269 C   0  0  0  0  0  0  0  0  0  0  0  0
   -7.8392   -0.6913  -22.9973 N   0  0  0  0  0  0  0  0  0  0  0  0
   -7.6838    0.2367  -21.8292 C   0  0  0  0  0  0  0  0  0  0  0  0
   -6.9565   -0.2206  -20.5996 C   0  0  0  0  0  0  0  0  0  0  0  0
   -6.3846   -1.6059  -20.5381 C   0  0  0  0  0  0  0  0  0  0  0  0
   -6.5400   -2.5340  -21.7062 C   0  0  0  0  0  0  0  0  0  0  0  0
   -7.2673   -2.0767  -22.9359 C   0  0  0  0  0  0  0  0  0  0  0  0
   -5.6573   -2.0631  -19.3085 C   0  0  0  0  0  0  0  0  0  0  0  0
   -5.2151   -3.4912  -19.1862 F   0  0  0  0  0  0  0  0  0  0  0  0
   -5.3722   -1.0922  -18.2011 F   0  0  0  0  0  0  0  0  0  0  0  0
   -9.1384    1.1513  -24.2884 C   0  0  0  0  0  0  0  0  0  0  0  0
  -10.6003    1.3711  -24.0346 C   0  0  0  0  0  0  0  0  0  0  0  0
  -11.1997    2.7317  -24.2330 C   0  0  0  0  0  0  0  0  0  0  0  0
  -12.6616    2.9515  -23.9792 N   0  0  0  0  0  0  0  0  0  0  0  0
  -13.5242    1.8107  -23.5270 C   0  0  0  0  0  0  0  0  0  0  0  0
  -12.9248    0.4500  -23.3286 C   0  0  0  0  0  0  0  0  0  0  0  0
  -13.7874   -0.6908  -22.8764 C   0  0  0  0  0  0  0  0  0  0  0  0
  -13.1880   -2.0514  -22.6780 C   0  0  0  0  0  0  0  0  0  0  0  0
  -11.7261   -2.2712  -22.9318 C   0  0  0  0  0  0  0  0  0  0  0  0
  -10.8635   -1.1304  -23.3840 C   0  0  0  0  0  0  0  0  0  0  0  0
  -11.4629    0.2302  -23.5824 C   0  0  0  0  0  0  0  0  0  0  0  0
  1  2  2  0  0  0
  2 12  1  0  0  0
 12 13  1  0  0  0
 13 14  2  0  0  0
 14 15  1  0  0  0
 15 16  2  0  0  0
 16 17  1  0  0  0
 17 18  2  0  0  0
 18 19  1  0  0  0
 19 20  2  0  0  0
 20 21  1  0  0  0
 21 22  2  0  0  0
  2  3  1  0  0  0
  3  4  1  0  0  0
  4  5  1  0  0  0
  5  6  1  0  0  0
  6  9  1  0  0  0
  9 10  1  0  0  0
  9 11  1  0  0  0
  6  7  1  0  0  0
  7  8  1  0  0  0
 22 13  1  0  0  0
  8  3  1  0  0  0
 22 17  1  0  0  0
M  END
> <minimizedAffinity>
-6.50174

> <CNNscore>
0.3453347981

> <CNNaffinity>
4.7938742638

> <CNN_VS>
1.6554915905

> <CNNaffinity_variance>
0.1941480637

$$$$



 22 24  0  0  0  0  0  0  0  0999 V2000
  -11.5880   -3.3118  -23.5419 O   0  0  0  0  0  0  0  0  0  0  0  0
  -10.6998   -2.1278  -23.7858 C   0  0  0  0  0  0  0  0  0  0  0  0
  -11.2636   -0.7397  -23.7124 N   0  0  0  0  0  0  0  0  0  0  0  0
  -10.3755    0.4443  -23.9563 C   0  0  0  0  0  0  0  0  0  0  0  0
  -10.9392    1.8324  -23.8829 C   0  0  0  0  0  0  0  0  0  0  0  0
  -12.3910    2.0365  -23.5657 C   0  0  0  0  0  0  0  0  0  0  0  0
  -13.2791    0.8525  -23.3219 C   0  0  0  0  0  0  0  0  0  0  0  0
  -12.7154   -0.5356  -23.3952 C   0  0  0  0  0  0  0  0  0  0  0  0
  -12.9547    3.4246  -23.4924 C   0  0  0  0  0  0  0  0  0  0  0  0
  -12.4753    4.3739  -22.4346 F   0  0  0  0  0  0  0  0  0  0  0  0
  -13.9980    3.8634  -24.4769 F   0  0  0  0  0  0  0  0  0  0  0  0
   -9.2481   -2.3319  -24.1030 C   0  0  0  0  0  0  0  0  0  0  0  0
   -8.6625   -3.7127  -24.0811 C   0  0  0  0  0  0  0  0  0  0  0  0
   -7.9546   -4.2079  -22.8549 C   0  0  0  0  0  0  0  0  0  0  0  0
   -7.3691   -5.5887  -22.8331 N   0  0  0  0  0  0  0  0  0  0  0  0
   -7.4914   -6.4744  -24.0375 C   0  0  0  0  0  0  0  0  0  0  0  0
   -8.1994   -5.9792  -25.2638 C   0  0  0  0  0  0  0  0  0  0  0  0
   -8.3217   -6.8649  -26.4682 C   0  0  0  0  0  0  0  0  0  0  0  0
   -9.0296   -6.3697  -27.6944 C   0  0  0  0  0  0  0  0  0  0  0  0
   -9.6151   -4.9889  -27.7162 C   0  0  0  0  0  0  0  0  0  0  0  0
   -9.4928   -4.1032  -26.5118 C   0  0  0  0  0  0  0  0  0  0  0  0
   -8.7849   -4.5984  -25.2856 C   0  0  0  0  0  0  0  0  0  0  0  0
  1  2  2  0  0  0
  2 12  1  0  0  0
 12 13  1  0  0  0
 13 14  2  0  0  0
 14 15  1  0  0  0
 15 16  2  0  0  0
 16 17  1  0  0  0
 17 18  2  0  0  0
 18 19  1  0  0  0
 19 20  2  0  0  0
 20 21  1  0  0  0
 21 22  2  0  0  0
  2  3  1  0  0  0
  3  4  1  0  0  0
  4  5  1  0  0  0
  5  6  1  0  0  0
  6  9  1  0  0  0
  9 10  1  0  0  0
  9 11  1  0  0  0
  6  7  1  0  0  0
  7  8  1  0  0  0
 22 13  1  0  0  0
  8  3  1  0  0  0
 22 17  1  0  0  0
M  END
> <minimizedAffinity>
-6.58752

> <CNNscore>
0.3403070569

> <CNNaffinity>
4.8404321671

> <CNN_VS>
1.6472332478

> <CNNaffinity_variance>
0.2752811909

$$$$
