


 22 24  0  0  0  0  0  0  0  0999 V2000
    6.5809   -2.0170   21.9761 O   0  0  0  0  0  0  0  0  0  0  0  0
    7.7296   -1.0541   22.0354 C   0  0  0  0  0  0  0  0  0  0  0  0
    8.9156   -1.3541   22.9034 N   0  0  0  0  0  0  0  0  0  0  0  0
   10.0642   -0.3913   22.9628 C   0  0  0  0  0  0  0  0  0  0  0  0
   11.2502   -0.6913   23.8308 C   0  0  0  0  0  0  0  0  0  0  0  0
   11.2875   -1.9541   24.6395 C   0  0  0  0  0  0  0  0  0  0  0  0
   10.1388   -2.9169   24.5801 C   0  0  0  0  0  0  0  0  0  0  0  0
    8.9528   -2.6170   23.7121 C   0  0  0  0  0  0  0  0  0  0  0  0
   12.4735   -2.2541   25.5075 C   0  0  0  0  0  0  0  0  0  0  0  0
   12.3581   -3.2611   26.6131 F   0  0  0  0  0  0  0  0  0  0  0  0
   13.7749   -1.5470   25.2698 F   0  0  0  0  0  0  0  0  0  0  0  0
    7.6923    0.2086   21.2267 C   0  0  0  0  0  0  0  0  0  0  0  0
    6.6926    0.3605   20.1188 C   0  0  0  0  0  0  0  0  0  0  0  0
    6.8114   -0.4785   18.8811 C   0  0  0  0  0  0  0  0  0  0  0  0
    5.8117   -0.3267   17.7732 N   0  0  0  0  0  0  0  0  0  0  0  0
    4.6931    0.6642   17.9030 C   0  0  0  0  0  0  0  0  0  0  0  0
    4.5742    1.5033   19.1407 C   0  0  0  0  0  0  0  0  0  0  0  0
    3.4556    2.4942   19.2705 C   0  0  0  0  0  0  0  0  0  0  0  0
    3.3368    3.3332   20.5081 C   0  0  0  0  0  0  0  0  0  0  0  0
    4.3365    3.1813   21.6160 C   0  0  0  0  0  0  0  0  0  0  0  0
    5.4551    2.1905   21.4863 C   0  0  0  0  0  0  0  0  0  0  0  0
    5.5739    1.3514   20.2486 C   0  0  0  0  0  0  0  0  0  0  0  0
  1  2  2  0  0  0
  2 12  1  0  0  0
 12 13  1  0  0  0
 13 14  2  0  0  0
 14 15  1  0  0  0
 15 16  2  0  0  0
 16 17  1  0  0  0
 17 18  2  0  0  0
 18 19  1  0  0  0
 19 20  2  0  0  0
 20 21  1  0  0  0
 21 22  2  0  0  0
  2  3  1  0  0  0
  3  4  1  0  0  0
  4  5  1  0  0  0
  5  6  1  0  0  0
  6  9  1  0  0  0
  9 10  1  0  0  0
  9 11  1  0  0  0
  6  7  1  0  0  0
  7  8  1  0  0  0
 22 13  1  0  0  0
  8  3  1  0  0  0
 22 17  1  0  0  0
M  END
> <minimizedAffinity>
-7.32616

> <CNNscore>
0.6690087914

> <CNNaffinity>
5.3205089569

> <CNN_VS>
3.5594673157

> <CNNaffinity_variance>
0.0972348154

$$$$



 22 24  0  0  0  0  0  0  0  0999 V2000
    8.6211    1.6922   21.2579 O   0  0  0  0  0  0  0  0  0  0  0  0
    8.5371    0.2420   21.6323 C   0  0  0  0  0  0  0  0  0  0  0  0
    9.5299   -0.3434   22.5923 N   0  0  0  0  0  0  0  0  0  0  0  0
    9.4460   -1.7935   22.9667 C   0  0  0  0  0  0  0  0  0  0  0  0
   10.4388   -2.3789   23.9267 C   0  0  0  0  0  0  0  0  0  0  0  0
   11.5155   -1.5143   24.5123 C   0  0  0  0  0  0  0  0  0  0  0  0
   11.5995   -0.0641   24.1380 C   0  0  0  0  0  0  0  0  0  0  0  0
   10.6067    0.5213   23.1779 C   0  0  0  0  0  0  0  0  0  0  0  0
   12.5083   -2.0997   25.4724 C   0  0  0  0  0  0  0  0  0  0  0  0
   12.1143   -3.2508   26.3496 F   0  0  0  0  0  0  0  0  0  0  0  0
   13.8951   -1.5339   25.5551 F   0  0  0  0  0  0  0  0  0  0  0  0
    7.4604   -0.6226   21.0467 C   0  0  0  0  0  0  0  0  0  0  0  0
    6.4662   -0.0366   20.0884 C   0  0  0  0  0  0  0  0  0  0  0  0
    6.7230   -0.0958   18.6118 C   0  0  0  0  0  0  0  0  0  0  0  0
    5.7288    0.4902   17.6536 N   0  0  0  0  0  0  0  0  0  0  0  0
    4.4778    1.1353   18.1719 C   0  0  0  0  0  0  0  0  0  0  0  0
    4.2209    1.1944   19.6487 C   0  0  0  0  0  0  0  0  0  0  0  0
    2.9699    1.8395   20.1670 C   0  0  0  0  0  0  0  0  0  0  0  0
    2.7131    1.8986   21.6437 C   0  0  0  0  0  0  0  0  0  0  0  0
    3.7073    1.3127   22.6019 C   0  0  0  0  0  0  0  0  0  0  0  0
    4.9583    0.6676   22.0835 C   0  0  0  0  0  0  0  0  0  0  0  0
    5.2151    0.6085   20.6069 C   0  0  0  0  0  0  0  0  0  0  0  0
  1  2  2  0  0  0
  2 12  1  0  0  0
 12 13  1  0  0  0
 13 14  2  0  0  0
 14 15  1  0  0  0
 15 16  2  0  0  0
 16 17  1  0  0  0
 17 18  2  0  0  0
 18 19  1  0  0  0
 19 20  2  0  0  0
 20 21  1  0  0  0
 21 22  2  0  0  0
  2  3  1  0  0  0
  3  4  1  0  0  0
  4  5  1  0  0  0
  5  6  1  0  0  0
  6  9  1  0  0  0
  9 10  1  0  0  0
  9 11  1  0  0  0
  6  7  1  0  0  0
  7  8  1  0  0  0
 22 13  1  0  0  0
  8  3  1  0  0  0
 22 17  1  0  0  0
M  END
> <minimizedAffinity>
-7.45574

> <CNNscore>
0.6539973617

> <CNNaffinity>
5.3280081749

> <CNN_VS>
3.4845032692

> <CNNaffinity_variance>
0.0689576417

$$$$



 22 24  0  0  0  0  0  0  0  0999 V2000
    6.1881    1.3122   23.6878 O   0  0  0  0  0  0  0  0  0  0  0  0
    6.7803    0.2763   22.7787 C   0  0  0  0  0  0  0  0  0  0  0  0
    8.2612    0.0376   22.7779 N   0  0  0  0  0  0  0  0  0  0  0  0
    8.8534   -0.9982   21.8689 C   0  0  0  0  0  0  0  0  0  0  0  0
   10.3343   -1.2369   21.8681 C   0  0  0  0  0  0  0  0  0  0  0  0
   11.2229   -0.4397   22.7762 C   0  0  0  0  0  0  0  0  0  0  0  0
   10.6307    0.5962   23.6852 C   0  0  0  0  0  0  0  0  0  0  0  0
    9.1499    0.8349   23.6861 C   0  0  0  0  0  0  0  0  0  0  0  0
   12.7038   -0.6784   22.7754 C   0  0  0  0  0  0  0  0  0  0  0  0
   13.6433    0.4386   22.4296 F   0  0  0  0  0  0  0  0  0  0  0  0
   13.2452   -2.0341   23.1203 F   0  0  0  0  0  0  0  0  0  0  0  0
    5.8916   -0.5208   21.8706 C   0  0  0  0  0  0  0  0  0  0  0  0
    5.5329    0.0120   20.5151 C   0  0  0  0  0  0  0  0  0  0  0  0
    6.3629   -0.3555   19.3210 C   0  0  0  0  0  0  0  0  0  0  0  0
    6.0042    0.1773   17.9655 N   0  0  0  0  0  0  0  0  0  0  0  0
    4.8154    1.0777   17.8041 C   0  0  0  0  0  0  0  0  0  0  0  0
    3.9853    1.4453   18.9982 C   0  0  0  0  0  0  0  0  0  0  0  0
    2.7966    2.3457   18.8368 C   0  0  0  0  0  0  0  0  0  0  0  0
    1.9665    2.7132   20.0309 C   0  0  0  0  0  0  0  0  0  0  0  0
    2.3253    2.1804   21.3864 C   0  0  0  0  0  0  0  0  0  0  0  0
    3.5140    1.2800   21.5478 C   0  0  0  0  0  0  0  0  0  0  0  0
    4.3440    0.9125   20.3537 C   0  0  0  0  0  0  0  0  0  0  0  0
  1  2  2  0  0  0
  2 12  1  0  0  0
 12 13  1  0  0  0
 13 14  2  0  0  0
 14 15  1  0  0  0
 15 16  2  0  0  0
 16 17  1  0  0  0
 17 18  2  0  0  0
 18 19  1  0  0  0
 19 20  2  0  0  0
 20 21  1  0  0  0
 21 22  2  0  0  0
  2  3  1  0  0  0
  3  4  1  0  0  0
  4  5  1  0  0  0
  5  6  1  0  0  0
  6  9  1  0  0  0
  9 10  1  0  0  0
  9 11  1  0  0  0
  6  7  1  0  0  0
  7  8  1  0  0  0
 22 13  1  0  0  0
  8  3  1  0  0  0
 22 17  1  0  0  0
M  END
> <minimizedAffinity>
-6.80379

> <CNNscore>
0.5541735888

> <CNNaffinity>
5.3815817833

> <CNN_VS>
2.9823305607

> <CNNaffinity_variance>
0.1428707242

$$$$



 22 24  0  0  0  0  0  0  0  0999 V2000
    7.4078   -0.3719   23.0431 O   0  0  0  0  0  0  0  0  0  0  0  0
    8.8863   -0.2107   22.8469 C   0  0  0  0  0  0  0  0  0  0  0  0
    9.4972    1.1592   22.8418 N   0  0  0  0  0  0  0  0  0  0  0  0
   10.9756    1.3204   22.6456 C   0  0  0  0  0  0  0  0  0  0  0  0
   11.5865    2.6903   22.6405 C   0  0  0  0  0  0  0  0  0  0  0  0
   10.7191    3.8991   22.8315 C   0  0  0  0  0  0  0  0  0  0  0  0
    9.2407    3.7379   23.0276 C   0  0  0  0  0  0  0  0  0  0  0  0
    8.6298    2.3680   23.0328 C   0  0  0  0  0  0  0  0  0  0  0  0
   11.3301    5.2690   22.8263 C   0  0  0  0  0  0  0  0  0  0  0  0
   12.4781    5.5748   21.9106 F   0  0  0  0  0  0  0  0  0  0  0  0
   10.7930    6.3332   23.7369 F   0  0  0  0  0  0  0  0  0  0  0  0
    9.7536   -1.4195   22.6560 C   0  0  0  0  0  0  0  0  0  0  0  0
    9.8446   -2.4557   23.7367 C   0  0  0  0  0  0  0  0  0  0  0  0
    8.7262   -3.4360   23.9318 C   0  0  0  0  0  0  0  0  0  0  0  0
    8.8172   -4.4722   25.0126 N   0  0  0  0  0  0  0  0  0  0  0  0
   10.0265   -4.5281   25.8982 C   0  0  0  0  0  0  0  0  0  0  0  0
   11.1449   -3.5477   25.7031 C   0  0  0  0  0  0  0  0  0  0  0  0
   12.3543   -3.6036   26.5887 C   0  0  0  0  0  0  0  0  0  0  0  0
   13.4727   -2.6233   26.3936 C   0  0  0  0  0  0  0  0  0  0  0  0
   13.3817   -1.5871   25.3128 C   0  0  0  0  0  0  0  0  0  0  0  0
   12.1724   -1.5312   24.4272 C   0  0  0  0  0  0  0  0  0  0  0  0
   11.0540   -2.5115   24.6223 C   0  0  0  0  0  0  0  0  0  0  0  0
  1  2  2  0  0  0
  2 12  1  0  0  0
 12 13  1  0  0  0
 13 14  2  0  0  0
 14 15  1  0  0  0
 15 16  2  0  0  0
 16 17  1  0  0  0
 17 18  2  0  0  0
 18 19  1  0  0  0
 19 20  2  0  0  0
 20 21  1  0  0  0
 21 22  2  0  0  0
  2  3  1  0  0  0
  3  4  1  0  0  0
  4  5  1  0  0  0
  5  6  1  0  0  0
  6  9  1  0  0  0
  9 10  1  0  0  0
  9 11  1  0  0  0
  6  7  1  0  0  0
  7  8  1  0  0  0
 22 13  1  0  0  0
  8  3  1  0  0  0
 22 17  1  0  0  0
M  END
> <minimizedAffinity>
-7.08739

> <CNNscore>
0.5515615940

> <CNNaffinity>
5.5903015137

> <CNN_VS>
3.0833957195

> <CNNaffinity_variance>
0.0943333805

$$$$



 22 24  0  0  0  0  0  0  0  0999 V2000
    6.0900   -2.1752   22.9471 O   0  0  0  0  0  0  0  0  0  0  0  0
    7.0301   -1.0168   22.7910 C   0  0  0  0  0  0  0  0  0  0  0  0
    8.4817   -1.1776   23.1329 N   0  0  0  0  0  0  0  0  0  0  0  0
    9.4218   -0.0192   22.9769 C   0  0  0  0  0  0  0  0  0  0  0  0
   10.8734   -0.1800   23.3188 C   0  0  0  0  0  0  0  0  0  0  0  0
   11.3850   -1.4992   23.8168 C   0  0  0  0  0  0  0  0  0  0  0  0
   10.4449   -2.6576   23.9729 C   0  0  0  0  0  0  0  0  0  0  0  0
    8.9933   -2.4968   23.6310 C   0  0  0  0  0  0  0  0  0  0  0  0
   12.8366   -1.6600   24.1588 C   0  0  0  0  0  0  0  0  0  0  0  0
   13.3612   -1.1426   25.4653 F   0  0  0  0  0  0  0  0  0  0  0  0
   13.7637   -2.3382   23.1941 F   0  0  0  0  0  0  0  0  0  0  0  0
    6.5186    0.3024   22.2930 C   0  0  0  0  0  0  0  0  0  0  0  0
    6.1302    0.4609   20.8528 C   0  0  0  0  0  0  0  0  0  0  0  0
    7.0076   -0.1001   19.7733 C   0  0  0  0  0  0  0  0  0  0  0  0
    6.6193    0.0585   18.3332 N   0  0  0  0  0  0  0  0  0  0  0  0
    5.3535    0.7780   17.9725 C   0  0  0  0  0  0  0  0  0  0  0  0
    4.4760    1.3391   19.0521 C   0  0  0  0  0  0  0  0  0  0  0  0
    3.2103    2.0586   18.6914 C   0  0  0  0  0  0  0  0  0  0  0  0
    2.3329    2.6196   19.7710 C   0  0  0  0  0  0  0  0  0  0  0  0
    2.7212    2.4611   21.2111 C   0  0  0  0  0  0  0  0  0  0  0  0
    3.9870    1.7415   21.5718 C   0  0  0  0  0  0  0  0  0  0  0  0
    4.8644    1.1805   20.4922 C   0  0  0  0  0  0  0  0  0  0  0  0
  1  2  2  0  0  0
  2 12  1  0  0  0
 12 13  1  0  0  0
 13 14  2  0  0  0
 14 15  1  0  0  0
 15 16  2  0  0  0
 16 17  1  0  0  0
 17 18  2  0  0  0
 18 19  1  0  0  0
 19 20  2  0  0  0
 20 21  1  0  0  0
 21 22  2  0  0  0
  2  3  1  0  0  0
  3  4  1  0  0  0
  4  5  1  0  0  0
  5  6  1  0  0  0
  6  9  1  0  0  0
  9 10  1  0  0  0
  9 11  1  0  0  0
  6  7  1  0  0  0
  7  8  1  0  0  0
 22 13  1  0  0  0
  8  3  1  0  0  0
 22 17  1  0  0  0
M  END
> <minimizedAffinity>
-6.98170

> <CNNscore>
0.4990267158

> <CNNaffinity>
5.2785706520

> <CNN_VS>
2.6341478825

> <CNNaffinity_variance>
0.0824369341

$$$$



 22 24  0  0  0  0  0  0  0  0999 V2000
    7.2263   -1.4872   23.0200 O   0  0  0  0  0  0  0  0  0  0  0  0
    8.4307   -0.6337   22.7533 C   0  0  0  0  0  0  0  0  0  0  0  0
    8.3465    0.8548   22.9182 N   0  0  0  0  0  0  0  0  0  0  0  0
    9.5509    1.7083   22.6516 C   0  0  0  0  0  0  0  0  0  0  0  0
    9.4667    3.1968   22.8165 C   0  0  0  0  0  0  0  0  0  0  0  0
    8.1781    3.8319   23.2481 C   0  0  0  0  0  0  0  0  0  0  0  0
    6.9737    2.9784   23.5148 C   0  0  0  0  0  0  0  0  0  0  0  0
    7.0579    1.4899   23.3498 C   0  0  0  0  0  0  0  0  0  0  0  0
    8.0940    5.3204   23.4130 C   0  0  0  0  0  0  0  0  0  0  0  0
    9.3258    6.1627   23.2613 F   0  0  0  0  0  0  0  0  0  0  0  0
    6.7778    5.9667   23.7296 F   0  0  0  0  0  0  0  0  0  0  0  0
    9.7192   -1.2688   22.3217 C   0  0  0  0  0  0  0  0  0  0  0  0
   10.8613   -1.3796   23.2878 C   0  0  0  0  0  0  0  0  0  0  0  0
   12.0505   -0.4758   23.1502 C   0  0  0  0  0  0  0  0  0  0  0  0
   13.1926   -0.5866   24.1163 N   0  0  0  0  0  0  0  0  0  0  0  0
   13.1455   -1.6012   25.2200 C   0  0  0  0  0  0  0  0  0  0  0  0
   11.9563   -2.5051   25.3577 C   0  0  0  0  0  0  0  0  0  0  0  0
   11.9092   -3.5197   26.4615 C   0  0  0  0  0  0  0  0  0  0  0  0
   10.7200   -4.4235   26.5991 C   0  0  0  0  0  0  0  0  0  0  0  0
    9.5780   -4.3127   25.6330 C   0  0  0  0  0  0  0  0  0  0  0  0
    9.6250   -3.2981   24.5293 C   0  0  0  0  0  0  0  0  0  0  0  0
   10.8142   -2.3943   24.3916 C   0  0  0  0  0  0  0  0  0  0  0  0
  1  2  2  0  0  0
  2 12  1  0  0  0
 12 13  1  0  0  0
 13 14  2  0  0  0
 14 15  1  0  0  0
 15 16  2  0  0  0
 16 17  1  0  0  0
 17 18  2  0  0  0
 18 19  1  0  0  0
 19 20  2  0  0  0
 20 21  1  0  0  0
 21 22  2  0  0  0
  2  3  1  0  0  0
  3  4  1  0  0  0
  4  5  1  0  0  0
  5  6  1  0  0  0
  6  9  1  0  0  0
  9 10  1  0  0  0
  9 11  1  0  0  0
  6  7  1  0  0  0
  7  8  1  0  0  0
 22 13  1  0  0  0
  8  3  1  0  0  0
 22 17  1  0  0  0
M  END
> <minimizedAffinity>
-6.51127

> <CNNscore>
0.4862009287

> <CNNaffinity>
5.4147462845

> <CNN_VS>
2.6326546669

> <CNNaffinity_variance>
0.1940656006

$$$$



 22 24  0  0  0  0  0  0  0  0999 V2000
    7.7253   -0.5998   24.1176 O   0  0  0  0  0  0  0  0  0  0  0  0
    8.0329   -0.8603   22.6728 C   0  0  0  0  0  0  0  0  0  0  0  0
    7.1357   -0.3102   21.6040 N   0  0  0  0  0  0  0  0  0  0  0  0
    7.4433   -0.5706   20.1591 C   0  0  0  0  0  0  0  0  0  0  0  0
    6.5460   -0.0205   19.0903 C   0  0  0  0  0  0  0  0  0  0  0  0
    5.3412    0.7900   19.4663 C   0  0  0  0  0  0  0  0  0  0  0  0
    5.0336    1.0505   20.9112 C   0  0  0  0  0  0  0  0  0  0  0  0
    5.9308    0.5004   21.9800 C   0  0  0  0  0  0  0  0  0  0  0  0
    4.4440    1.3401   18.3975 C   0  0  0  0  0  0  0  0  0  0  0  0
    4.9341    1.4365   16.9831 F   0  0  0  0  0  0  0  0  0  0  0  0
    3.0566    1.7939   18.7432 F   0  0  0  0  0  0  0  0  0  0  0  0
    9.2377   -1.6709   22.2968 C   0  0  0  0  0  0  0  0  0  0  0  0
   10.5107   -1.5288   23.0774 C   0  0  0  0  0  0  0  0  0  0  0  0
   11.5361   -0.5159   22.6622 C   0  0  0  0  0  0  0  0  0  0  0  0
   12.8091   -0.3739   23.4429 N   0  0  0  0  0  0  0  0  0  0  0  0
   13.0566   -1.2448   24.6388 C   0  0  0  0  0  0  0  0  0  0  0  0
   12.0311   -2.2578   25.0541 C   0  0  0  0  0  0  0  0  0  0  0  0
   12.2786   -3.1287   26.2500 C   0  0  0  0  0  0  0  0  0  0  0  0
   11.2532   -4.1416   26.6652 C   0  0  0  0  0  0  0  0  0  0  0  0
    9.9802   -4.2836   25.8845 C   0  0  0  0  0  0  0  0  0  0  0  0
    9.7327   -3.4127   24.6886 C   0  0  0  0  0  0  0  0  0  0  0  0
   10.7582   -2.3998   24.2734 C   0  0  0  0  0  0  0  0  0  0  0  0
  1  2  2  0  0  0
  2 12  1  0  0  0
 12 13  1  0  0  0
 13 14  2  0  0  0
 14 15  1  0  0  0
 15 16  2  0  0  0
 16 17  1  0  0  0
 17 18  2  0  0  0
 18 19  1  0  0  0
 19 20  2  0  0  0
 20 21  1  0  0  0
 21 22  2  0  0  0
  2  3  1  0  0  0
  3  4  1  0  0  0
  4  5  1  0  0  0
  5  6  1  0  0  0
  6  9  1  0  0  0
  9 10  1  0  0  0
  9 11  1  0  0  0
  6  7  1  0  0  0
  7  8  1  0  0  0
 22 13  1  0  0  0
  8  3  1  0  0  0
 22 17  1  0  0  0
M  END
> <minimizedAffinity>
-7.81426

> <CNNscore>
0.4409276247

> <CNNaffinity>
5.2044010162

> <CNN_VS>
2.2947642803

> <CNNaffinity_variance>
0.0758415982

$$$$



 22 24  0  0  0  0  0  0  0  0999 V2000
    7.5794   -0.8521   24.1190 O   0  0  0  0  0  0  0  0  0  0  0  0
    7.8797   -2.2892   23.8108 C   0  0  0  0  0  0  0  0  0  0  0  0
    6.9796   -3.3713   24.3294 N   0  0  0  0  0  0  0  0  0  0  0  0
    7.2798   -4.8082   24.0212 C   0  0  0  0  0  0  0  0  0  0  0  0
    6.3798   -5.8904   24.5398 C   0  0  0  0  0  0  0  0  0  0  0  0
    5.1795   -5.5355   25.3664 C   0  0  0  0  0  0  0  0  0  0  0  0
    4.8792   -4.0985   25.6746 C   0  0  0  0  0  0  0  0  0  0  0  0
    5.7793   -3.0164   25.1561 C   0  0  0  0  0  0  0  0  0  0  0  0
    4.2794   -6.6177   25.8850 C   0  0  0  0  0  0  0  0  0  0  0  0
    4.4675   -7.1473   27.2757 F   0  0  0  0  0  0  0  0  0  0  0  0
    3.1913   -7.1702   25.0127 F   0  0  0  0  0  0  0  0  0  0  0  0
    9.0800   -2.6440   22.9842 C   0  0  0  0  0  0  0  0  0  0  0  0
   10.3670   -1.8966   23.1712 C   0  0  0  0  0  0  0  0  0  0  0  0
   10.7507   -0.8114   22.2094 C   0  0  0  0  0  0  0  0  0  0  0  0
   12.0377   -0.0641   22.3964 N   0  0  0  0  0  0  0  0  0  0  0  0
   12.9411   -0.4019   23.5452 C   0  0  0  0  0  0  0  0  0  0  0  0
   12.5574   -1.4871   24.5071 C   0  0  0  0  0  0  0  0  0  0  0  0
   13.4607   -1.8249   25.6559 C   0  0  0  0  0  0  0  0  0  0  0  0
   13.0770   -2.9100   26.6177 C   0  0  0  0  0  0  0  0  0  0  0  0
   11.7900   -3.6574   26.4307 C   0  0  0  0  0  0  0  0  0  0  0  0
   10.8866   -3.3196   25.2819 C   0  0  0  0  0  0  0  0  0  0  0  0
   11.2704   -2.2345   24.3201 C   0  0  0  0  0  0  0  0  0  0  0  0
  1  2  2  0  0  0
  2 12  1  0  0  0
 12 13  1  0  0  0
 13 14  2  0  0  0
 14 15  1  0  0  0
 15 16  2  0  0  0
 16 17  1  0  0  0
 17 18  2  0  0  0
 18 19  1  0  0  0
 19 20  2  0  0  0
 20 21  1  0  0  0
 21 22  2  0  0  0
  2  3  1  0  0  0
  3  4  1  0  0  0
  4  5  1  0  0  0
  5  6  1  0  0  0
  6  9  1  0  0  0
  9 10  1  0  0  0
  9 11  1  0  0  0
  6  7  1  0  0  0
  7  8  1  0  0  0
 22 13  1  0  0  0
  8  3  1  0  0  0
 22 17  1  0  0  0
M  END
> <minimizedAffinity>
-6.49176

> <CNNscore>
0.4394461215

> <CNNaffinity>
5.3715696335

> <CNN_VS>
2.3605153561

> <CNNaffinity_variance>
0.0735112801

$$$$



 22 24  0  0  0  0  0  0  0  0999 V2000
    7.5888   -1.2146   20.8922 O   0  0  0  0  0  0  0  0  0  0  0  0
    8.6555   -0.5622   21.7209 C   0  0  0  0  0  0  0  0  0  0  0  0
    8.5130    0.8733   22.1319 N   0  0  0  0  0  0  0  0  0  0  0  0
    9.5796    1.5256   22.9606 C   0  0  0  0  0  0  0  0  0  0  0  0
    9.4371    2.9612   23.3716 C   0  0  0  0  0  0  0  0  0  0  0  0
    8.2280    3.7444   22.9539 C   0  0  0  0  0  0  0  0  0  0  0  0
    7.1612    3.0921   22.1252 C   0  0  0  0  0  0  0  0  0  0  0  0
    7.3037    1.6565   21.7142 C   0  0  0  0  0  0  0  0  0  0  0  0
    8.0854    5.1799   23.3649 C   0  0  0  0  0  0  0  0  0  0  0  0
    6.7536    5.7024   23.8156 F   0  0  0  0  0  0  0  0  0  0  0  0
    9.2749    6.0931   23.3251 F   0  0  0  0  0  0  0  0  0  0  0  0
    9.8646   -1.3455   22.1386 C   0  0  0  0  0  0  0  0  0  0  0  0
    9.7831   -2.2863   23.3040 C   0  0  0  0  0  0  0  0  0  0  0  0
    8.5609   -3.1337   23.4997 C   0  0  0  0  0  0  0  0  0  0  0  0
    8.4793   -4.0746   24.6650 N   0  0  0  0  0  0  0  0  0  0  0  0
    9.6199   -4.1681   25.6347 C   0  0  0  0  0  0  0  0  0  0  0  0
   10.8421   -3.3207   25.4391 C   0  0  0  0  0  0  0  0  0  0  0  0
   11.9827   -3.4142   26.4088 C   0  0  0  0  0  0  0  0  0  0  0  0
   13.2048   -2.5668   26.2131 C   0  0  0  0  0  0  0  0  0  0  0  0
   13.2864   -1.6260   25.0477 C   0  0  0  0  0  0  0  0  0  0  0  0
   12.1458   -1.5324   24.0780 C   0  0  0  0  0  0  0  0  0  0  0  0
   10.9237   -2.3798   24.2737 C   0  0  0  0  0  0  0  0  0  0  0  0
  1  2  2  0  0  0
  2 12  1  0  0  0
 12 13  1  0  0  0
 13 14  2  0  0  0
 14 15  1  0  0  0
 15 16  2  0  0  0
 16 17  1  0  0  0
 17 18  2  0  0  0
 18 19  1  0  0  0
 19 20  2  0  0  0
 20 21  1  0  0  0
 21 22  2  0  0  0
  2  3  1  0  0  0
  3  4  1  0  0  0
  4  5  1  0  0  0
  5  6  1  0  0  0
  6  9  1  0  0  0
  9 10  1  0  0  0
  9 11  1  0  0  0
  6  7  1  0  0  0
  7  8  1  0  0  0
 22 13  1  0  0  0
  8  3  1  0  0  0
 22 17  1  0  0  0
M  END
> <minimizedAffinity>
-6.54543

> <CNNscore>
0.4369881451

> <CNNaffinity>
5.3346376419

> <CNN_VS>
2.3311734200

> <CNNaffinity_variance>
0.0759566128

$$$$
