


 36 40  0  0  0  0  0  0  0  0999 V2000
   -7.2986   -1.5642  -22.5180 N   0  0  0  0  0  0  0  0  0  0  0  0
   -6.5900   -0.8986  -21.3757 C   0  0  0  0  0  0  0  0  0  0  0  0
   -7.3591   -0.0463  -20.4103 O   0  0  0  0  0  0  0  0  0  0  0  0
  -10.4081    2.6381  -23.9046 C   0  0  0  0  0  0  0  0  0  0  0  0
   -8.9304    2.4514  -23.7277 O   0  0  0  0  0  0  0  0  0  0  0  0
  -11.3420    1.4863  -23.6783 N   0  0  0  0  0  0  0  0  0  0  0  0
  -12.8198    1.6729  -23.8552 C   0  0  0  0  0  0  0  0  0  0  0  0
  -13.7536    0.5211  -23.6288 C   0  0  0  0  0  0  0  0  0  0  0  0
  -13.2098   -0.8173  -23.2256 C   0  0  0  0  0  0  0  0  0  0  0  0
  -11.7320   -1.0040  -23.0487 C   0  0  0  0  0  0  0  0  0  0  0  0
  -11.1881   -2.3426  -22.6455 C   0  0  0  0  0  0  0  0  0  0  0  0
   -9.7103   -2.5292  -22.4686 C   0  0  0  0  0  0  0  0  0  0  0  0
   -8.7764   -1.3774  -22.6949 C   0  0  0  0  0  0  0  0  0  0  0  0
   -9.3203   -0.0390  -23.0981 C   0  0  0  0  0  0  0  0  0  0  0  0
  -10.7981    0.1478  -23.2750 C   0  0  0  0  0  0  0  0  0  0  0  0
  -11.4398    4.9341  -23.2613 C   0  0  0  0  0  0  0  0  0  0  0  0
  -10.9520    3.9765  -24.3078 C   0  0  0  0  0  0  0  0  0  0  0  0
   -6.5295   -2.4165  -23.4834 C   0  0  0  0  0  0  0  0  0  0  0  0
   -6.7138   -3.9051  -23.4813 C   0  0  0  0  0  0  0  0  0  0  0  0
   -7.5035   -4.5646  -24.5728 C   0  0  0  0  0  0  0  0  0  0  0  0
   -7.6878   -6.0532  -24.5707 C   0  0  0  0  0  0  0  0  0  0  0  0
   -7.0823   -6.8824  -23.4771 C   0  0  0  0  0  0  0  0  0  0  0  0
   -6.2926   -6.2229  -22.3856 C   0  0  0  0  0  0  0  0  0  0  0  0
   -5.6871   -7.0520  -21.2920 Br  0  0  0  0  0  0  0  0  0  0  0  0
   -6.1083   -4.7342  -22.3877 C   0  0  0  0  0  0  0  0  0  0  0  0
   -5.1122   -1.0854  -21.1989 C   0  0  0  0  0  0  0  0  0  0  0  0
   -4.2308    0.1023  -20.9482 C   0  0  0  0  0  0  0  0  0  0  0  0
   -4.1456    0.6962  -19.5735 C   0  0  0  0  0  0  0  0  0  0  0  0
   -3.2642    1.8837  -19.3229 N   0  0  0  0  0  0  0  0  0  0  0  0
   -2.4681    2.4774  -20.4471 C   0  0  0  0  0  0  0  0  0  0  0  0
   -2.5533    1.8835  -21.8218 C   0  0  0  0  0  0  0  0  0  0  0  0
   -1.7572    2.4771  -22.9460 C   0  0  0  0  0  0  0  0  0  0  0  0
   -1.8424    1.8832  -24.3207 C   0  0  0  0  0  0  0  0  0  0  0  0
   -2.7238    0.6956  -24.5714 C   0  0  0  0  0  0  0  0  0  0  0  0
   -3.5199    0.1019  -23.4472 C   0  0  0  0  0  0  0  0  0  0  0  0
   -3.4347    0.6959  -22.0724 C   0  0  0  0  0  0  0  0  0  0  0  0
 16 17  1  0  0  0
 17  4  1  0  0  0
  4  5  2  0  0  0
  4  6  1  0  0  0
  6  7  1  0  0  0
  7  8  1  0  0  0
  8  9  1  0  0  0
  9 10  1  0  0  0
 10 11  2  0  0  0
 11 12  1  0  0  0
 12 13  2  0  0  0
 13  1  1  0  0  0
  1 18  1  0  0  0
 18 19  1  0  0  0
 19 20  2  0  0  0
 20 21  1  0  0  0
 21 22  2  0  0  0
 22 23  1  0  0  0
 23 24  1  0  0  0
 23 25  2  0  0  0
  1  2  1  0  0  0
  2  3  2  0  0  0
  2 26  1  0  0  0
 26 27  1  0  0  0
 27 28  2  0  0  0
 28 29  1  0  0  0
 29 30  2  0  0  0
 30 31  1  0  0  0
 31 32  2  0  0  0
 32 33  1  0  0  0
 33 34  2  0  0  0
 34 35  1  0  0  0
 35 36  2  0  0  0
 13 14  1  0  0  0
 14 15  2  0  0  0
 15  6  1  0  0  0
 15 10  1  0  0  0
 25 19  1  0  0  0
 36 27  1  0  0  0
 36 31  1  0  0  0
M  END
> <minimizedAffinity>
-8.23335

> <CNNscore>
0.3695063591

> <CNNaffinity>
6.4558486938

> <CNN_VS>
2.3854770660

> <CNNaffinity_variance>
0.2633585334

$$$$



 36 40  0  0  0  0  0  0  0  0999 V2000
   -7.1696   -1.3676  -22.8028 N   0  0  0  0  0  0  0  0  0  0  0  0
   -8.6211   -1.1796  -22.4747 C   0  0  0  0  0  0  0  0  0  0  0  0
   -9.0254   -0.2584  -21.3620 O   0  0  0  0  0  0  0  0  0  0  0  0
   -4.2674    3.1089  -23.6906 C   0  0  0  0  0  0  0  0  0  0  0  0
   -5.3147    2.3758  -24.4751 O   0  0  0  0  0  0  0  0  0  0  0  0
   -3.8383    2.5943  -22.3485 N   0  0  0  0  0  0  0  0  0  0  0  0
   -2.7910    3.3274  -21.5639 C   0  0  0  0  0  0  0  0  0  0  0  0
   -2.3619    2.8127  -20.2219 C   0  0  0  0  0  0  0  0  0  0  0  0
   -2.9802    1.5650  -19.6645 C   0  0  0  0  0  0  0  0  0  0  0  0
   -4.0275    0.8319  -20.4491 C   0  0  0  0  0  0  0  0  0  0  0  0
   -4.6458   -0.4160  -19.8916 C   0  0  0  0  0  0  0  0  0  0  0  0
   -5.6932   -1.1491  -20.6762 C   0  0  0  0  0  0  0  0  0  0  0  0
   -6.1222   -0.6344  -22.0182 C   0  0  0  0  0  0  0  0  0  0  0  0
   -5.5040    0.6133  -22.5757 C   0  0  0  0  0  0  0  0  0  0  0  0
   -4.4566    1.3465  -21.7911 C   0  0  0  0  0  0  0  0  0  0  0  0
   -4.3279    5.6805  -24.0558 C   0  0  0  0  0  0  0  0  0  0  0  0
   -3.6491    4.3567  -24.2480 C   0  0  0  0  0  0  0  0  0  0  0  0
   -6.7654   -2.2888  -23.9155 C   0  0  0  0  0  0  0  0  0  0  0  0
   -6.9392   -3.7708  -23.7628 C   0  0  0  0  0  0  0  0  0  0  0  0
   -7.7839   -4.5317  -24.7413 C   0  0  0  0  0  0  0  0  0  0  0  0
   -7.9577   -6.0137  -24.5885 C   0  0  0  0  0  0  0  0  0  0  0  0
   -7.2867   -6.7349  -23.4573 C   0  0  0  0  0  0  0  0  0  0  0  0
   -6.4419   -5.9740  -22.4787 C   0  0  0  0  0  0  0  0  0  0  0  0
   -5.7710   -6.6951  -21.3475 Br  0  0  0  0  0  0  0  0  0  0  0  0
   -6.2682   -4.4919  -22.6315 C   0  0  0  0  0  0  0  0  0  0  0  0
   -9.6684   -1.9128  -23.2593 C   0  0  0  0  0  0  0  0  0  0  0  0
  -11.1127   -1.5314  -23.1218 C   0  0  0  0  0  0  0  0  0  0  0  0
  -12.1188   -2.5514  -22.6778 C   0  0  0  0  0  0  0  0  0  0  0  0
  -13.5629   -2.1700  -22.5404 N   0  0  0  0  0  0  0  0  0  0  0  0
  -14.0009   -0.7685  -22.8469 C   0  0  0  0  0  0  0  0  0  0  0  0
  -12.9948    0.2516  -23.2908 C   0  0  0  0  0  0  0  0  0  0  0  0
  -13.4328    1.6531  -23.5973 C   0  0  0  0  0  0  0  0  0  0  0  0
  -12.4267    2.6731  -24.0412 C   0  0  0  0  0  0  0  0  0  0  0  0
  -10.9825    2.2917  -24.1787 C   0  0  0  0  0  0  0  0  0  0  0  0
  -10.5445    0.8902  -23.8722 C   0  0  0  0  0  0  0  0  0  0  0  0
  -11.5507   -0.1299  -23.4283 C   0  0  0  0  0  0  0  0  0  0  0  0
 16 17  1  0  0  0
 17  4  1  0  0  0
  4  5  2  0  0  0
  4  6  1  0  0  0
  6  7  1  0  0  0
  7  8  1  0  0  0
  8  9  1  0  0  0
  9 10  1  0  0  0
 10 11  2  0  0  0
 11 12  1  0  0  0
 12 13  2  0  0  0
 13  1  1  0  0  0
  1 18  1  0  0  0
 18 19  1  0  0  0
 19 20  2  0  0  0
 20 21  1  0  0  0
 21 22  2  0  0  0
 22 23  1  0  0  0
 23 24  1  0  0  0
 23 25  2  0  0  0
  1  2  1  0  0  0
  2  3  2  0  0  0
  2 26  1  0  0  0
 26 27  1  0  0  0
 27 28  2  0  0  0
 28 29  1  0  0  0
 29 30  2  0  0  0
 30 31  1  0  0  0
 31 32  2  0  0  0
 32 33  1  0  0  0
 33 34  2  0  0  0
 34 35  1  0  0  0
 35 36  2  0  0  0
 13 14  1  0  0  0
 14 15  2  0  0  0
 15  6  1  0  0  0
 15 10  1  0  0  0
 25 19  1  0  0  0
 36 27  1  0  0  0
 36 31  1  0  0  0
M  END
> <minimizedAffinity>
-7.79823

> <CNNscore>
0.3630765975

> <CNNaffinity>
6.4776411057

> <CNN_VS>
2.3518798351

> <CNNaffinity_variance>
0.1736044437

$$$$



 36 40  0  0  0  0  0  0  0  0999 V2000
   -6.9977   -1.3579  -22.8032 N   0  0  0  0  0  0  0  0  0  0  0  0
   -8.4496   -1.1384  -22.4971 C   0  0  0  0  0  0  0  0  0  0  0  0
   -8.8509   -0.1980  -21.3995 O   0  0  0  0  0  0  0  0  0  0  0  0
   -2.1190    0.6469  -23.9987 C   0  0  0  0  0  0  0  0  0  0  0  0
   -3.1696   -0.0740  -24.7902 O   0  0  0  0  0  0  0  0  0  0  0  0
   -2.3443    0.9400  -22.5450 N   0  0  0  0  0  0  0  0  0  0  0  0
   -1.2937    1.6609  -21.7536 C   0  0  0  0  0  0  0  0  0  0  0  0
   -1.5191    1.9540  -20.2999 C   0  0  0  0  0  0  0  0  0  0  0  0
   -2.7951    1.5261  -19.6376 C   0  0  0  0  0  0  0  0  0  0  0  0
   -3.8457    0.8051  -20.4290 C   0  0  0  0  0  0  0  0  0  0  0  0
   -5.1217    0.3772  -19.7667 C   0  0  0  0  0  0  0  0  0  0  0  0
   -6.1724   -0.3438  -20.5581 C   0  0  0  0  0  0  0  0  0  0  0  0
   -5.9470   -0.6368  -22.0118 C   0  0  0  0  0  0  0  0  0  0  0  0
   -4.6710   -0.2089  -22.6741 C   0  0  0  0  0  0  0  0  0  0  0  0
   -3.6203    0.5121  -21.8827 C   0  0  0  0  0  0  0  0  0  0  0  0
   -0.8860    1.8061  -25.9700 C   0  0  0  0  0  0  0  0  0  0  0  0
   -0.8430    1.0748  -24.6611 C   0  0  0  0  0  0  0  0  0  0  0  0
   -6.5964   -2.2982  -23.9008 C   0  0  0  0  0  0  0  0  0  0  0  0
   -6.8238   -3.7727  -23.7456 C   0  0  0  0  0  0  0  0  0  0  0  0
   -7.6943   -4.5044  -24.7238 C   0  0  0  0  0  0  0  0  0  0  0  0
   -7.9218   -5.9789  -24.5686 C   0  0  0  0  0  0  0  0  0  0  0  0
   -7.2787   -6.7218  -23.4352 C   0  0  0  0  0  0  0  0  0  0  0  0
   -6.4083   -5.9901  -22.4569 C   0  0  0  0  0  0  0  0  0  0  0  0
   -5.7652   -6.7329  -21.3235 Br  0  0  0  0  0  0  0  0  0  0  0  0
   -6.1808   -4.5155  -22.6122 C   0  0  0  0  0  0  0  0  0  0  0  0
   -9.5002   -1.8594  -23.2885 C   0  0  0  0  0  0  0  0  0  0  0  0
  -10.9420   -1.4688  -23.1518 C   0  0  0  0  0  0  0  0  0  0  0  0
  -11.9538   -2.4806  -22.7019 C   0  0  0  0  0  0  0  0  0  0  0  0
  -13.3955   -2.0900  -22.5653 N   0  0  0  0  0  0  0  0  0  0  0  0
  -13.8255   -0.6875  -22.8786 C   0  0  0  0  0  0  0  0  0  0  0  0
  -12.8138    0.3243  -23.3285 C   0  0  0  0  0  0  0  0  0  0  0  0
  -13.2437    1.7268  -23.6418 C   0  0  0  0  0  0  0  0  0  0  0  0
  -12.2320    2.7386  -24.0918 C   0  0  0  0  0  0  0  0  0  0  0  0
  -10.7901    2.3480  -24.2284 C   0  0  0  0  0  0  0  0  0  0  0  0
  -10.3602    0.9455  -23.9151 C   0  0  0  0  0  0  0  0  0  0  0  0
  -11.3720   -0.0663  -23.4651 C   0  0  0  0  0  0  0  0  0  0  0  0
 16 17  1  0  0  0
 17  4  1  0  0  0
  4  5  2  0  0  0
  4  6  1  0  0  0
  6  7  1  0  0  0
  7  8  1  0  0  0
  8  9  1  0  0  0
  9 10  1  0  0  0
 10 11  2  0  0  0
 11 12  1  0  0  0
 12 13  2  0  0  0
 13  1  1  0  0  0
  1 18  1  0  0  0
 18 19  1  0  0  0
 19 20  2  0  0  0
 20 21  1  0  0  0
 21 22  2  0  0  0
 22 23  1  0  0  0
 23 24  1  0  0  0
 23 25  2  0  0  0
  1  2  1  0  0  0
  2  3  2  0  0  0
  2 26  1  0  0  0
 26 27  1  0  0  0
 27 28  2  0  0  0
 28 29  1  0  0  0
 29 30  2  0  0  0
 30 31  1  0  0  0
 31 32  2  0  0  0
 32 33  1  0  0  0
 33 34  2  0  0  0
 34 35  1  0  0  0
 35 36  2  0  0  0
 13 14  1  0  0  0
 14 15  2  0  0  0
 15  6  1  0  0  0
 15 10  1  0  0  0
 25 19  1  0  0  0
 36 27  1  0  0  0
 36 31  1  0  0  0
M  END
> <minimizedAffinity>
-8.17031

> <CNNscore>
0.2654949129

> <CNNaffinity>
6.2023439407

> <CNN_VS>
1.6466907263

> <CNNaffinity_variance>
0.2909258008

$$$$



 36 40  0  0  0  0  0  0  0  0999 V2000
   -8.7222   -1.2805  -23.8691 N   0  0  0  0  0  0  0  0  0  0  0  0
   -8.1138   -1.3894  -22.5024 C   0  0  0  0  0  0  0  0  0  0  0  0
   -7.7154   -2.7314  -21.9635 O   0  0  0  0  0  0  0  0  0  0  0  0
   -5.6351   -4.0224  -27.3623 C   0  0  0  0  0  0  0  0  0  0  0  0
   -5.4252   -2.7893  -26.5344 O   0  0  0  0  0  0  0  0  0  0  0  0
   -6.9440   -4.7525  -27.3019 N   0  0  0  0  0  0  0  0  0  0  0  0
   -7.1540   -5.9855  -28.1298 C   0  0  0  0  0  0  0  0  0  0  0  0
   -8.4629   -6.7156  -28.0693 C   0  0  0  0  0  0  0  0  0  0  0  0
   -9.5619   -6.2127  -27.1810 C   0  0  0  0  0  0  0  0  0  0  0  0
   -9.3519   -4.9797  -26.3530 C   0  0  0  0  0  0  0  0  0  0  0  0
  -10.4509   -4.4767  -25.4646 C   0  0  0  0  0  0  0  0  0  0  0  0
  -10.2410   -3.2437  -24.6367 C   0  0  0  0  0  0  0  0  0  0  0  0
   -8.9321   -2.5136  -24.6971 C   0  0  0  0  0  0  0  0  0  0  0  0
   -7.8331   -3.0165  -25.5855 C   0  0  0  0  0  0  0  0  0  0  0  0
   -8.0430   -4.2496  -26.4135 C   0  0  0  0  0  0  0  0  0  0  0  0
   -3.4503   -5.3911  -27.6837 C   0  0  0  0  0  0  0  0  0  0  0  0
   -4.5361   -4.5253  -28.2507 C   0  0  0  0  0  0  0  0  0  0  0  0
   -9.1206    0.0615  -24.4079 C   0  0  0  0  0  0  0  0  0  0  0  0
  -10.4483    0.6539  -24.0387 C   0  0  0  0  0  0  0  0  0  0  0  0
  -11.6214   -0.2422  -23.7724 C   0  0  0  0  0  0  0  0  0  0  0  0
  -12.9490    0.3502  -23.4032 C   0  0  0  0  0  0  0  0  0  0  0  0
  -13.1036    1.8387  -23.3002 C   0  0  0  0  0  0  0  0  0  0  0  0
  -11.9305    2.7348  -23.5664 C   0  0  0  0  0  0  0  0  0  0  0  0
  -12.0850    4.2232  -23.4635 Br  0  0  0  0  0  0  0  0  0  0  0  0
  -10.6028    2.1423  -23.9357 C   0  0  0  0  0  0  0  0  0  0  0  0
   -7.9040   -0.1564  -21.6744 C   0  0  0  0  0  0  0  0  0  0  0  0
   -6.9107   -0.1677  -20.5504 C   0  0  0  0  0  0  0  0  0  0  0  0
   -7.1631   -1.0098  -19.3350 C   0  0  0  0  0  0  0  0  0  0  0  0
   -6.1698   -1.0211  -18.2111 N   0  0  0  0  0  0  0  0  0  0  0  0
   -4.9242   -0.1904  -18.3025 C   0  0  0  0  0  0  0  0  0  0  0  0
   -4.6718    0.6516  -19.5179 C   0  0  0  0  0  0  0  0  0  0  0  0
   -3.4262    1.4822  -19.6094 C   0  0  0  0  0  0  0  0  0  0  0  0
   -3.1738    2.3243  -20.8248 C   0  0  0  0  0  0  0  0  0  0  0  0
   -4.1670    2.3356  -21.9488 C   0  0  0  0  0  0  0  0  0  0  0  0
   -5.4127    1.5050  -21.8574 C   0  0  0  0  0  0  0  0  0  0  0  0
   -5.6650    0.6629  -20.6419 C   0  0  0  0  0  0  0  0  0  0  0  0
 16 17  1  0  0  0
 17  4  1  0  0  0
  4  5  2  0  0  0
  4  6  1  0  0  0
  6  7  1  0  0  0
  7  8  1  0  0  0
  8  9  1  0  0  0
  9 10  1  0  0  0
 10 11  2  0  0  0
 11 12  1  0  0  0
 12 13  2  0  0  0
 13  1  1  0  0  0
  1 18  1  0  0  0
 18 19  1  0  0  0
 19 20  2  0  0  0
 20 21  1  0  0  0
 21 22  2  0  0  0
 22 23  1  0  0  0
 23 24  1  0  0  0
 23 25  2  0  0  0
  1  2  1  0  0  0
  2  3  2  0  0  0
  2 26  1  0  0  0
 26 27  1  0  0  0
 27 28  2  0  0  0
 28 29  1  0  0  0
 29 30  2  0  0  0
 30 31  1  0  0  0
 31 32  2  0  0  0
 32 33  1  0  0  0
 33 34  2  0  0  0
 34 35  1  0  0  0
 35 36  2  0  0  0
 13 14  1  0  0  0
 14 15  2  0  0  0
 15  6  1  0  0  0
 15 10  1  0  0  0
 25 19  1  0  0  0
 36 27  1  0  0  0
 36 31  1  0  0  0
M  END
> <minimizedAffinity>
-8.61633

> <CNNscore>
0.2252417803

> <CNNaffinity>
6.1532254219

> <CNN_VS>
1.3859634399

> <CNNaffinity_variance>
0.4258724153

$$$$



 36 40  0  0  0  0  0  0  0  0999 V2000
   -8.9333   -2.7668  -23.0658 N   0  0  0  0  0  0  0  0  0  0  0  0
   -7.8090   -2.0844  -22.3445 C   0  0  0  0  0  0  0  0  0  0  0  0
   -6.4027   -2.2204  -22.8481 O   0  0  0  0  0  0  0  0  0  0  0  0
   -5.2610   -6.5443  -24.2886 C   0  0  0  0  0  0  0  0  0  0  0  0
   -5.5430   -5.7259  -23.0636 O   0  0  0  0  0  0  0  0  0  0  0  0
   -6.1090   -6.3763  -25.5144 N   0  0  0  0  0  0  0  0  0  0  0  0
   -5.8270   -7.1946  -26.7394 C   0  0  0  0  0  0  0  0  0  0  0  0
   -6.6751   -7.0266  -27.9652 C   0  0  0  0  0  0  0  0  0  0  0  0
   -7.8051   -6.0403  -27.9660 C   0  0  0  0  0  0  0  0  0  0  0  0
   -8.0871   -5.2220  -26.7410 C   0  0  0  0  0  0  0  0  0  0  0  0
   -9.2173   -4.2356  -26.7417 C   0  0  0  0  0  0  0  0  0  0  0  0
   -9.4993   -3.4172  -25.5167 C   0  0  0  0  0  0  0  0  0  0  0  0
   -8.6512   -3.5852  -24.2909 C   0  0  0  0  0  0  0  0  0  0  0  0
   -7.5212   -4.5715  -24.2901 C   0  0  0  0  0  0  0  0  0  0  0  0
   -7.2391   -5.3899  -25.5152 C   0  0  0  0  0  0  0  0  0  0  0  0
   -2.7119   -7.0454  -24.2558 C   0  0  0  0  0  0  0  0  0  0  0  0
   -4.1309   -7.5306  -24.2878 C   0  0  0  0  0  0  0  0  0  0  0  0
  -10.3397   -2.6308  -22.5622 C   0  0  0  0  0  0  0  0  0  0  0  0
  -11.1656   -1.4421  -22.9557 C   0  0  0  0  0  0  0  0  0  0  0  0
  -12.6593   -1.5580  -23.0296 C   0  0  0  0  0  0  0  0  0  0  0  0
  -13.4852   -0.3693  -23.4231 C   0  0  0  0  0  0  0  0  0  0  0  0
  -12.8174    0.9353  -23.7427 C   0  0  0  0  0  0  0  0  0  0  0  0
  -11.3237    1.0512  -23.6688 C   0  0  0  0  0  0  0  0  0  0  0  0
  -10.6559    2.3557  -23.9884 Br  0  0  0  0  0  0  0  0  0  0  0  0
  -10.4978   -0.1376  -23.2753 C   0  0  0  0  0  0  0  0  0  0  0  0
   -8.0911   -1.2660  -21.1195 C   0  0  0  0  0  0  0  0  0  0  0  0
   -6.9602   -0.8056  -20.2482 C   0  0  0  0  0  0  0  0  0  0  0  0
   -6.7126   -1.4707  -18.9268 C   0  0  0  0  0  0  0  0  0  0  0  0
   -5.5817   -1.0103  -18.0557 N   0  0  0  0  0  0  0  0  0  0  0  0
   -4.6983    0.1153  -18.5059 C   0  0  0  0  0  0  0  0  0  0  0  0
   -4.9459    0.7805  -19.8274 C   0  0  0  0  0  0  0  0  0  0  0  0
   -4.0626    1.9061  -20.2776 C   0  0  0  0  0  0  0  0  0  0  0  0
   -4.3102    2.5713  -21.5991 C   0  0  0  0  0  0  0  0  0  0  0  0
   -5.4412    2.1108  -22.4703 C   0  0  0  0  0  0  0  0  0  0  0  0
   -6.3245    0.9852  -22.0200 C   0  0  0  0  0  0  0  0  0  0  0  0
   -6.0769    0.3200  -20.6985 C   0  0  0  0  0  0  0  0  0  0  0  0
 16 17  1  0  0  0
 17  4  1  0  0  0
  4  5  2  0  0  0
  4  6  1  0  0  0
  6  7  1  0  0  0
  7  8  1  0  0  0
  8  9  1  0  0  0
  9 10  1  0  0  0
 10 11  2  0  0  0
 11 12  1  0  0  0
 12 13  2  0  0  0
 13  1  1  0  0  0
  1 18  1  0  0  0
 18 19  1  0  0  0
 19 20  2  0  0  0
 20 21  1  0  0  0
 21 22  2  0  0  0
 22 23  1  0  0  0
 23 24  1  0  0  0
 23 25  2  0  0  0
  1  2  1  0  0  0
  2  3  2  0  0  0
  2 26  1  0  0  0
 26 27  1  0  0  0
 27 28  2  0  0  0
 28 29  1  0  0  0
 29 30  2  0  0  0
 30 31  1  0  0  0
 31 32  2  0  0  0
 32 33  1  0  0  0
 33 34  2  0  0  0
 34 35  1  0  0  0
 35 36  2  0  0  0
 13 14  1  0  0  0
 14 15  2  0  0  0
 15  6  1  0  0  0
 15 10  1  0  0  0
 25 19  1  0  0  0
 36 27  1  0  0  0
 36 31  1  0  0  0
M  END
> <minimizedAffinity>
-8.74955

> <CNNscore>
0.1905359626

> <CNNaffinity>
6.2838907242

> <CNN_VS>
1.1973071098

> <CNNaffinity_variance>
0.5889928341

$$$$



 36 40  0  0  0  0  0  0  0  0999 V2000
   -9.7909   -0.1158  -22.7752 N   0  0  0  0  0  0  0  0  0  0  0  0
   -8.5119    0.3220  -22.1254 C   0  0  0  0  0  0  0  0  0  0  0  0
   -8.2349    1.7823  -21.9232 O   0  0  0  0  0  0  0  0  0  0  0  0
   -9.3968    4.8090  -24.9754 C   0  0  0  0  0  0  0  0  0  0  0  0
   -8.3947    3.7866  -24.5278 O   0  0  0  0  0  0  0  0  0  0  0  0
  -10.8644    4.5306  -24.8388 N   0  0  0  0  0  0  0  0  0  0  0  0
  -11.8666    5.5530  -25.2864 C   0  0  0  0  0  0  0  0  0  0  0  0
  -13.3342    5.2746  -25.1497 C   0  0  0  0  0  0  0  0  0  0  0  0
  -13.7996    3.9738  -24.5655 C   0  0  0  0  0  0  0  0  0  0  0  0
  -12.7974    2.9515  -24.1180 C   0  0  0  0  0  0  0  0  0  0  0  0
  -13.2629    1.6506  -23.5337 C   0  0  0  0  0  0  0  0  0  0  0  0
  -12.2607    0.6282  -23.0862 C   0  0  0  0  0  0  0  0  0  0  0  0
  -10.7931    0.9066  -23.2228 C   0  0  0  0  0  0  0  0  0  0  0  0
  -10.3277    2.2074  -23.8070 C   0  0  0  0  0  0  0  0  0  0  0  0
  -11.3298    3.2299  -24.2546 C   0  0  0  0  0  0  0  0  0  0  0  0
   -7.8572    6.1201  -26.6065 C   0  0  0  0  0  0  0  0  0  0  0  0
   -8.9314    6.1098  -25.5596 C   0  0  0  0  0  0  0  0  0  0  0  0
  -10.0679   -1.5761  -22.9773 C   0  0  0  0  0  0  0  0  0  0  0  0
   -9.5645   -2.2717  -24.2072 C   0  0  0  0  0  0  0  0  0  0  0  0
   -8.4871   -1.6402  -25.0382 C   0  0  0  0  0  0  0  0  0  0  0  0
   -7.9837   -2.3358  -26.2680 C   0  0  0  0  0  0  0  0  0  0  0  0
   -8.5577   -3.6630  -26.6671 C   0  0  0  0  0  0  0  0  0  0  0  0
   -9.6351   -4.2945  -25.8361 C   0  0  0  0  0  0  0  0  0  0  0  0
  -10.2090   -5.6217  -26.2351 Br  0  0  0  0  0  0  0  0  0  0  0  0
  -10.1385   -3.5989  -24.6062 C   0  0  0  0  0  0  0  0  0  0  0  0
   -7.5098   -0.7005  -21.6778 C   0  0  0  0  0  0  0  0  0  0  0  0
   -6.6121   -0.4104  -20.5116 C   0  0  0  0  0  0  0  0  0  0  0  0
   -6.9946   -0.8739  -19.1372 C   0  0  0  0  0  0  0  0  0  0  0  0
   -6.0970   -0.5839  -17.9711 N   0  0  0  0  0  0  0  0  0  0  0  0
   -4.8168    0.1696  -18.1792 C   0  0  0  0  0  0  0  0  0  0  0  0
   -4.4342    0.6331  -19.5535 C   0  0  0  0  0  0  0  0  0  0  0  0
   -3.1540    1.3866  -19.7616 C   0  0  0  0  0  0  0  0  0  0  0  0
   -2.7715    1.8501  -21.1359 C   0  0  0  0  0  0  0  0  0  0  0  0
   -3.6692    1.5601  -22.3022 C   0  0  0  0  0  0  0  0  0  0  0  0
   -4.9494    0.8066  -22.0941 C   0  0  0  0  0  0  0  0  0  0  0  0
   -5.3319    0.3431  -20.7197 C   0  0  0  0  0  0  0  0  0  0  0  0
 16 17  1  0  0  0
 17  4  1  0  0  0
  4  5  2  0  0  0
  4  6  1  0  0  0
  6  7  1  0  0  0
  7  8  1  0  0  0
  8  9  1  0  0  0
  9 10  1  0  0  0
 10 11  2  0  0  0
 11 12  1  0  0  0
 12 13  2  0  0  0
 13  1  1  0  0  0
  1 18  1  0  0  0
 18 19  1  0  0  0
 19 20  2  0  0  0
 20 21  1  0  0  0
 21 22  2  0  0  0
 22 23  1  0  0  0
 23 24  1  0  0  0
 23 25  2  0  0  0
  1  2  1  0  0  0
  2  3  2  0  0  0
  2 26  1  0  0  0
 26 27  1  0  0  0
 27 28  2  0  0  0
 28 29  1  0  0  0
 29 30  2  0  0  0
 30 31  1  0  0  0
 31 32  2  0  0  0
 32 33  1  0  0  0
 33 34  2  0  0  0
 34 35  1  0  0  0
 35 36  2  0  0  0
 13 14  1  0  0  0
 14 15  2  0  0  0
 15  6  1  0  0  0
 15 10  1  0  0  0
 25 19  1  0  0  0
 36 27  1  0  0  0
 36 31  1  0  0  0
M  END
> <minimizedAffinity>
-8.42945

> <CNNscore>
0.1796543449

> <CNNaffinity>
6.1508207321

> <CNN_VS>
1.1050217152

> <CNNaffinity_variance>
0.2621277273

$$$$



 36 40  0  0  0  0  0  0  0  0999 V2000
   -6.7059   -2.9952  -22.5331 N   0  0  0  0  0  0  0  0  0  0  0  0
   -6.4648   -4.4455  -22.2360 C   0  0  0  0  0  0  0  0  0  0  0  0
   -5.4905   -4.8401  -21.1659 O   0  0  0  0  0  0  0  0  0  0  0  0
   -2.7914    0.5238  -23.7756 C   0  0  0  0  0  0  0  0  0  0  0  0
   -3.5245   -0.5320  -24.5487 O   0  0  0  0  0  0  0  0  0  0  0  0
   -3.1187    0.7587  -22.3307 N   0  0  0  0  0  0  0  0  0  0  0  0
   -2.3855    1.8145  -21.5577 C   0  0  0  0  0  0  0  0  0  0  0  0
   -2.7128    2.0494  -20.1128 C   0  0  0  0  0  0  0  0  0  0  0  0
   -3.7732    1.2284  -19.4409 C   0  0  0  0  0  0  0  0  0  0  0  0
   -4.5063    0.1725  -20.2140 C   0  0  0  0  0  0  0  0  0  0  0  0
   -5.5668   -0.6486  -19.5421 C   0  0  0  0  0  0  0  0  0  0  0  0
   -6.2999   -1.7044  -20.3152 C   0  0  0  0  0  0  0  0  0  0  0  0
   -5.9727   -1.9393  -21.7601 C   0  0  0  0  0  0  0  0  0  0  0  0
   -4.9123   -1.1183  -22.4319 C   0  0  0  0  0  0  0  0  0  0  0  0
   -4.1791   -0.0623  -21.6589 C   0  0  0  0  0  0  0  0  0  0  0  0
   -0.3394    0.8029  -24.5877 C   0  0  0  0  0  0  0  0  0  0  0  0
   -1.7310    1.3448  -24.4475 C   0  0  0  0  0  0  0  0  0  0  0  0
   -7.6801   -2.6007  -23.6032 C   0  0  0  0  0  0  0  0  0  0  0  0
   -8.6625   -1.4953  -23.3526 C   0  0  0  0  0  0  0  0  0  0  0  0
   -8.1726   -0.1216  -23.0021 C   0  0  0  0  0  0  0  0  0  0  0  0
   -9.1550    0.9838  -22.7515 C   0  0  0  0  0  0  0  0  0  0  0  0
  -10.6275    0.7155  -22.8512 C   0  0  0  0  0  0  0  0  0  0  0  0
  -11.1175   -0.6582  -23.2017 C   0  0  0  0  0  0  0  0  0  0  0  0
  -12.5899   -0.9265  -23.3015 Br  0  0  0  0  0  0  0  0  0  0  0  0
  -10.1349   -1.7636  -23.4524 C   0  0  0  0  0  0  0  0  0  0  0  0
   -7.1980   -5.5014  -23.0090 C   0  0  0  0  0  0  0  0  0  0  0  0
   -6.6660   -5.9679  -24.3317 C   0  0  0  0  0  0  0  0  0  0  0  0
   -5.2353   -6.4019  -24.4538 C   0  0  0  0  0  0  0  0  0  0  0  0
   -4.7034   -6.8684  -25.7764 N   0  0  0  0  0  0  0  0  0  0  0  0
   -5.6021   -6.9010  -26.9769 C   0  0  0  0  0  0  0  0  0  0  0  0
   -7.0328   -6.4671  -26.8548 C   0  0  0  0  0  0  0  0  0  0  0  0
   -7.9315   -6.4997  -28.0554 C   0  0  0  0  0  0  0  0  0  0  0  0
   -9.3621   -6.0658  -27.9333 C   0  0  0  0  0  0  0  0  0  0  0  0
   -9.8941   -5.5992  -26.6106 C   0  0  0  0  0  0  0  0  0  0  0  0
   -8.9954   -5.5666  -25.4101 C   0  0  0  0  0  0  0  0  0  0  0  0
   -7.5647   -6.0005  -25.5322 C   0  0  0  0  0  0  0  0  0  0  0  0
 16 17  1  0  0  0
 17  4  1  0  0  0
  4  5  2  0  0  0
  4  6  1  0  0  0
  6  7  1  0  0  0
  7  8  1  0  0  0
  8  9  1  0  0  0
  9 10  1  0  0  0
 10 11  2  0  0  0
 11 12  1  0  0  0
 12 13  2  0  0  0
 13  1  1  0  0  0
  1 18  1  0  0  0
 18 19  1  0  0  0
 19 20  2  0  0  0
 20 21  1  0  0  0
 21 22  2  0  0  0
 22 23  1  0  0  0
 23 24  1  0  0  0
 23 25  2  0  0  0
  1  2  1  0  0  0
  2  3  2  0  0  0
  2 26  1  0  0  0
 26 27  1  0  0  0
 27 28  2  0  0  0
 28 29  1  0  0  0
 29 30  2  0  0  0
 30 31  1  0  0  0
 31 32  2  0  0  0
 32 33  1  0  0  0
 33 34  2  0  0  0
 34 35  1  0  0  0
 35 36  2  0  0  0
 13 14  1  0  0  0
 14 15  2  0  0  0
 15  6  1  0  0  0
 15 10  1  0  0  0
 25 19  1  0  0  0
 36 27  1  0  0  0
 36 31  1  0  0  0
M  END
> <minimizedAffinity>
-7.80353

> <CNNscore>
0.1509256512

> <CNNaffinity>
6.1675119400

> <CNN_VS>
0.9308357835

> <CNNaffinity_variance>
0.1842228323

$$$$



 36 40  0  0  0  0  0  0  0  0999 V2000
   -8.3868   -0.4149  -23.9829 N   0  0  0  0  0  0  0  0  0  0  0  0
   -9.8400   -0.1082  -23.7723 C   0  0  0  0  0  0  0  0  0  0  0  0
  -10.8884   -0.9569  -24.4285 O   0  0  0  0  0  0  0  0  0  0  0  0
   -7.1700   -5.5927  -23.0033 C   0  0  0  0  0  0  0  0  0  0  0  0
   -7.5748   -4.4375  -22.1364 O   0  0  0  0  0  0  0  0  0  0  0  0
   -7.0360   -5.4071  -24.4857 N   0  0  0  0  0  0  0  0  0  0  0  0
   -6.6312   -6.5623  -25.3526 C   0  0  0  0  0  0  0  0  0  0  0  0
   -6.4971   -6.3768  -26.8351 C   0  0  0  0  0  0  0  0  0  0  0  0
   -6.7678   -5.0359  -27.4506 C   0  0  0  0  0  0  0  0  0  0  0  0
   -7.1725   -3.8807  -26.5837 C   0  0  0  0  0  0  0  0  0  0  0  0
   -7.4432   -2.5398  -27.1992 C   0  0  0  0  0  0  0  0  0  0  0  0
   -7.8480   -1.3846  -26.3323 C   0  0  0  0  0  0  0  0  0  0  0  0
   -7.9821   -1.5702  -24.8498 C   0  0  0  0  0  0  0  0  0  0  0  0
   -7.7114   -2.9110  -24.2343 C   0  0  0  0  0  0  0  0  0  0  0  0
   -7.3066   -4.0663  -25.1012 C   0  0  0  0  0  0  0  0  0  0  0  0
   -5.7832   -7.0931  -21.3985 C   0  0  0  0  0  0  0  0  0  0  0  0
   -6.8994   -6.9335  -22.3878 C   0  0  0  0  0  0  0  0  0  0  0  0
   -7.3384    0.4338  -23.3267 C   0  0  0  0  0  0  0  0  0  0  0  0
   -6.8678    0.1063  -21.9406 C   0  0  0  0  0  0  0  0  0  0  0  0
   -7.6451   -0.8564  -21.0926 C   0  0  0  0  0  0  0  0  0  0  0  0
   -7.1744   -1.1839  -19.7065 C   0  0  0  0  0  0  0  0  0  0  0  0
   -5.9265   -0.5488  -19.1685 C   0  0  0  0  0  0  0  0  0  0  0  0
   -5.1493    0.4139  -20.0165 C   0  0  0  0  0  0  0  0  0  0  0  0
   -3.9015    1.0490  -19.4786 Br  0  0  0  0  0  0  0  0  0  0  0  0
   -5.6200    0.7414  -21.4027 C   0  0  0  0  0  0  0  0  0  0  0  0
  -10.2447    1.0470  -22.9054 C   0  0  0  0  0  0  0  0  0  0  0  0
  -11.3381    1.9722  -23.3510 C   0  0  0  0  0  0  0  0  0  0  0  0
  -12.7705    1.6353  -23.0604 C   0  0  0  0  0  0  0  0  0  0  0  0
  -13.8639    2.5605  -23.5061 N   0  0  0  0  0  0  0  0  0  0  0  0
  -13.5247    3.8226  -24.2423 C   0  0  0  0  0  0  0  0  0  0  0  0
  -12.0923    4.1595  -24.5330 C   0  0  0  0  0  0  0  0  0  0  0  0
  -11.7531    5.4216  -25.2692 C   0  0  0  0  0  0  0  0  0  0  0  0
  -10.3207    5.7585  -25.5598 C   0  0  0  0  0  0  0  0  0  0  0  0
   -9.2273    4.8333  -25.1142 C   0  0  0  0  0  0  0  0  0  0  0  0
   -9.5664    3.5712  -24.3779 C   0  0  0  0  0  0  0  0  0  0  0  0
  -10.9990    3.2343  -24.0873 C   0  0  0  0  0  0  0  0  0  0  0  0
 16 17  1  0  0  0
 17  4  1  0  0  0
  4  5  2  0  0  0
  4  6  1  0  0  0
  6  7  1  0  0  0
  7  8  1  0  0  0
  8  9  1  0  0  0
  9 10  1  0  0  0
 10 11  2  0  0  0
 11 12  1  0  0  0
 12 13  2  0  0  0
 13  1  1  0  0  0
  1 18  1  0  0  0
 18 19  1  0  0  0
 19 20  2  0  0  0
 20 21  1  0  0  0
 21 22  2  0  0  0
 22 23  1  0  0  0
 23 24  1  0  0  0
 23 25  2  0  0  0
  1  2  1  0  0  0
  2  3  2  0  0  0
  2 26  1  0  0  0
 26 27  1  0  0  0
 27 28  2  0  0  0
 28 29  1  0  0  0
 29 30  2  0  0  0
 30 31  1  0  0  0
 31 32  2  0  0  0
 32 33  1  0  0  0
 33 34  2  0  0  0
 34 35  1  0  0  0
 35 36  2  0  0  0
 13 14  1  0  0  0
 14 15  2  0  0  0
 15  6  1  0  0  0
 15 10  1  0  0  0
 25 19  1  0  0  0
 36 27  1  0  0  0
 36 31  1  0  0  0
M  END
> <minimizedAffinity>
-8.38045

> <CNNscore>
0.1389369816

> <CNNaffinity>
6.0734834671

> <CNN_VS>
0.8438314795

> <CNNaffinity_variance>
0.3892069757

$$$$



 36 40  0  0  0  0  0  0  0  0999 V2000
   -9.2985   -0.7835  -23.8170 N   0  0  0  0  0  0  0  0  0  0  0  0
  -10.6139   -0.0956  -23.6012 C   0  0  0  0  0  0  0  0  0  0  0  0
  -11.8922   -0.7896  -23.9676 O   0  0  0  0  0  0  0  0  0  0  0  0
   -5.3829   -3.8599  -25.9276 C   0  0  0  0  0  0  0  0  0  0  0  0
   -5.4200   -2.4780  -25.3455 O   0  0  0  0  0  0  0  0  0  0  0  0
   -6.6387   -4.6770  -26.0002 N   0  0  0  0  0  0  0  0  0  0  0  0
   -6.6017   -6.0589  -26.5823 C   0  0  0  0  0  0  0  0  0  0  0  0
   -7.8575   -6.8760  -26.6550 C   0  0  0  0  0  0  0  0  0  0  0  0
   -9.1503   -6.3113  -26.1455 C   0  0  0  0  0  0  0  0  0  0  0  0
   -9.1873   -4.9294  -25.5634 C   0  0  0  0  0  0  0  0  0  0  0  0
  -10.4802   -4.3645  -25.0539 C   0  0  0  0  0  0  0  0  0  0  0  0
  -10.5172   -2.9826  -24.4718 C   0  0  0  0  0  0  0  0  0  0  0  0
   -9.2614   -2.1655  -24.3991 C   0  0  0  0  0  0  0  0  0  0  0  0
   -7.9686   -2.7302  -24.9086 C   0  0  0  0  0  0  0  0  0  0  0  0
   -7.9316   -4.1122  -25.4908 C   0  0  0  0  0  0  0  0  0  0  0  0
   -3.7524   -4.3281  -27.8954 C   0  0  0  0  0  0  0  0  0  0  0  0
   -4.0901   -4.4247  -26.4371 C   0  0  0  0  0  0  0  0  0  0  0  0
   -8.0202   -0.0895  -23.4506 C   0  0  0  0  0  0  0  0  0  0  0  0
   -7.4336   -0.2712  -22.0821 C   0  0  0  0  0  0  0  0  0  0  0  0
   -8.1039   -1.1784  -21.0933 C   0  0  0  0  0  0  0  0  0  0  0  0
   -7.5174   -1.3601  -19.7247 C   0  0  0  0  0  0  0  0  0  0  0  0
   -6.2605   -0.6347  -19.3450 C   0  0  0  0  0  0  0  0  0  0  0  0
   -5.5902    0.2724  -20.3338 C   0  0  0  0  0  0  0  0  0  0  0  0
   -4.3334    0.9978  -19.9542 Br  0  0  0  0  0  0  0  0  0  0  0  0
   -6.1768    0.4542  -21.7024 C   0  0  0  0  0  0  0  0  0  0  0  0
  -10.6509    1.2863  -23.0191 C   0  0  0  0  0  0  0  0  0  0  0  0
  -11.6010    2.3075  -23.5711 C   0  0  0  0  0  0  0  0  0  0  0  0
  -13.0187    2.3538  -23.0833 C   0  0  0  0  0  0  0  0  0  0  0  0
  -13.9687    3.3750  -23.6352 N   0  0  0  0  0  0  0  0  0  0  0  0
  -13.5010    4.3498  -24.6750 C   0  0  0  0  0  0  0  0  0  0  0  0
  -12.0833    4.3034  -25.1628 C   0  0  0  0  0  0  0  0  0  0  0  0
  -11.6156    5.2782  -26.2025 C   0  0  0  0  0  0  0  0  0  0  0  0
  -10.1979    5.2319  -26.6903 C   0  0  0  0  0  0  0  0  0  0  0  0
   -9.2478    4.2107  -26.1383 C   0  0  0  0  0  0  0  0  0  0  0  0
   -9.7155    3.2359  -25.0986 C   0  0  0  0  0  0  0  0  0  0  0  0
  -11.1333    3.2823  -24.6108 C   0  0  0  0  0  0  0  0  0  0  0  0
 16 17  1  0  0  0
 17  4  1  0  0  0
  4  5  2  0  0  0
  4  6  1  0  0  0
  6  7  1  0  0  0
  7  8  1  0  0  0
  8  9  1  0  0  0
  9 10  1  0  0  0
 10 11  2  0  0  0
 11 12  1  0  0  0
 12 13  2  0  0  0
 13  1  1  0  0  0
  1 18  1  0  0  0
 18 19  1  0  0  0
 19 20  2  0  0  0
 20 21  1  0  0  0
 21 22  2  0  0  0
 22 23  1  0  0  0
 23 24  1  0  0  0
 23 25  2  0  0  0
  1  2  1  0  0  0
  2  3  2  0  0  0
  2 26  1  0  0  0
 26 27  1  0  0  0
 27 28  2  0  0  0
 28 29  1  0  0  0
 29 30  2  0  0  0
 30 31  1  0  0  0
 31 32  2  0  0  0
 32 33  1  0  0  0
 33 34  2  0  0  0
 34 35  1  0  0  0
 35 36  2  0  0  0
 13 14  1  0  0  0
 14 15  2  0  0  0
 15  6  1  0  0  0
 15 10  1  0  0  0
 25 19  1  0  0  0
 36 27  1  0  0  0
 36 31  1  0  0  0
M  END
> <minimizedAffinity>
-7.88952

> <CNNscore>
0.1334397346

> <CNNaffinity>
6.0802884102

> <CNN_VS>
0.8113520741

> <CNNaffinity_variance>
0.3542992175

$$$$
