


 38 42  0  0  0  0  0  0  0  0999 V2000
   -8.0026   -1.4206  -23.4807 N   0  0  0  0  0  0  0  0  0  0  0  0
   -8.2319    0.0495  -23.6709 C   0  0  0  0  0  0  0  0  0  0  0  0
   -9.6227    0.6069  -23.6008 C   0  0  0  0  0  0  0  0  0  0  0  0
  -10.9496    1.3051  -23.5582 C   0  0  0  0  0  0  0  0  0  0  0  0
  -12.1274    1.0563  -23.3932 O   0  0  0  0  0  0  0  0  0  0  0  0
  -10.7123    2.7667  -23.7981 N   0  0  0  0  0  0  0  0  0  0  0  0
   -9.2387    2.9718  -23.9889 C   0  0  0  0  0  0  0  0  0  0  0  0
   -8.5653    1.6370  -23.8670 C   0  0  0  0  0  0  0  0  0  0  0  0
  -10.7842   -0.3058  -23.3404 C   0  0  0  0  0  0  0  0  0  0  0  0
  -12.1750    0.2516  -23.2702 C   0  0  0  0  0  0  0  0  0  0  0  0
  -13.3365   -0.6611  -23.0098 C   0  0  0  0  0  0  0  0  0  0  0  0
  -14.7274   -0.1037  -22.9397 F   0  0  0  0  0  0  0  0  0  0  0  0
  -13.1072   -2.1312  -22.8196 C   0  0  0  0  0  0  0  0  0  0  0  0
  -11.7164   -2.6886  -22.8898 C   0  0  0  0  0  0  0  0  0  0  0  0
  -10.5549   -1.7759  -23.1502 C   0  0  0  0  0  0  0  0  0  0  0  0
   -9.1641   -2.3333  -23.2203 C   0  0  0  0  0  0  0  0  0  0  0  0
   -8.9348   -3.8034  -23.0301 O   0  0  0  0  0  0  0  0  0  0  0  0
  -11.7640    3.8354  -23.8398 C   0  0  0  0  0  0  0  0  0  0  0  0
  -12.5199    4.1928  -22.5944 C   0  0  0  0  0  0  0  0  0  0  0  0
  -13.5716    5.2616  -22.6361 N   0  0  0  0  0  0  0  0  0  0  0  0
  -13.8674    5.9729  -23.9232 C   0  0  0  0  0  0  0  0  0  0  0  0
  -13.1115    5.6155  -25.1685 C   0  0  0  0  0  0  0  0  0  0  0  0
  -13.4073    6.3269  -26.4556 C   0  0  0  0  0  0  0  0  0  0  0  0
  -12.6513    5.9694  -27.7009 C   0  0  0  0  0  0  0  0  0  0  0  0
  -11.5996    4.9006  -27.6592 C   0  0  0  0  0  0  0  0  0  0  0  0
  -11.3038    4.1893  -26.3722 C   0  0  0  0  0  0  0  0  0  0  0  0
  -12.0598    4.5467  -25.1268 C   0  0  0  0  0  0  0  0  0  0  0  0
   -6.6117   -1.9780  -23.5509 C   0  0  0  0  0  0  0  0  0  0  0  0
   -5.6250   -5.4412  -21.8828 C   0  0  0  0  0  0  0  0  0  0  0  0
   -6.0824   -4.4364  -22.8983 N   0  0  0  0  0  0  0  0  0  0  0  0
   -6.1543   -2.9828  -22.5354 C   0  0  0  0  0  0  0  0  0  0  0  0
   -5.7687   -2.5338  -21.1571 O   0  0  0  0  0  0  0  0  0  0  0  0
   -6.3355   -4.7310  -23.8029 H   0  0  0  0  0  0  0  0  0  0  0  0
   -7.0930    1.3779  -23.9897 C   0  0  0  0  0  0  0  0  0  0  0  0
   -6.1163    2.5030  -23.8160 O   0  0  0  0  0  0  0  0  0  0  0  0
   -5.8814    3.0890  -22.4554 C   0  0  0  0  0  0  0  0  0  0  0  0
   -6.4620    4.4269  -22.1046 C   0  0  0  0  0  0  0  0  0  0  0  0
   -5.0659    2.3373  -21.4455 C   0  0  0  0  0  0  0  0  0  0  0  0
 29 30  1  0  0  0
 30 31  1  0  0  0
 31 32  2  0  0  0
 31 28  1  0  0  0
 28  1  1  0  0  0
  1  2  1  0  0  0
  3  2  1  0  0  0
  3  4  1  0  0  0
  4  5  2  0  0  0
  4  6  1  0  0  0
  6 18  1  0  0  0
 18 19  2  0  0  0
 19 20  1  0  0  0
 20 21  2  0  0  0
 21 22  1  0  0  0
 22 23  2  0  0  0
 23 24  1  0  0  0
 24 25  2  0  0  0
 25 26  1  0  0  0
 26 27  2  0  0  0
  6  7  1  0  0  0
  7  8  1  0  0  0
  8 34  1  0  0  0
 34 35  1  0  0  0
 35 36  1  0  0  0
 36 37  1  0  0  0
 36 38  1  0  0  0
  3  9  1  0  0  0
  9 10  2  0  0  0
 10 11  1  0  0  0
 11 12  1  0  0  0
 11 13  2  0  0  0
 13 14  1  0  0  0
 14 15  2  0  0  0
 15 16  1  0  0  0
 16 17  2  0  0  0
 16  1  1  0  0  0
  8  3  1  0  0  0
 15  9  1  0  0  0
 27 18  1  0  0  0
 27 22  1  0  0  0
 30 33  1  0  0  0
M  END
> <minimizedAffinity>
-7.46042

> <CNNscore>
0.6923871040

> <CNNaffinity>
6.7643408775

> <CNN_VS>
4.6835422516

> <CNNaffinity_variance>
0.0476891212

$$$$



 38 42  0  0  0  0  0  0  0  0999 V2000
   -7.3737   -2.4047  -24.0213 N   0  0  0  0  0  0  0  0  0  0  0  0
   -6.3018   -2.2375  -25.0572 C   0  0  0  0  0  0  0  0  0  0  0  0
   -5.3541   -1.0777  -24.9755 C   0  0  0  0  0  0  0  0  0  0  0  0
   -4.3394    0.0259  -25.0241 C   0  0  0  0  0  0  0  0  0  0  0  0
   -4.0157    1.0206  -24.4060 O   0  0  0  0  0  0  0  0  0  0  0  0
   -3.4669   -0.1991  -26.2233 N   0  0  0  0  0  0  0  0  0  0  0  0
   -3.9424   -1.4418  -26.9159 C   0  0  0  0  0  0  0  0  0  0  0  0
   -5.1087   -1.9848  -26.1447 C   0  0  0  0  0  0  0  0  0  0  0  0
   -5.4782   -0.0851  -23.8577 C   0  0  0  0  0  0  0  0  0  0  0  0
   -4.5305    1.0747  -23.7759 C   0  0  0  0  0  0  0  0  0  0  0  0
   -4.6547    2.0673  -22.6582 C   0  0  0  0  0  0  0  0  0  0  0  0
   -3.7070    3.2271  -22.5764 F   0  0  0  0  0  0  0  0  0  0  0  0
   -5.7266    1.9000  -21.6223 C   0  0  0  0  0  0  0  0  0  0  0  0
   -6.6743    0.7403  -21.7040 C   0  0  0  0  0  0  0  0  0  0  0  0
   -6.5501   -0.2523  -22.8218 C   0  0  0  0  0  0  0  0  0  0  0  0
   -7.4978   -1.4122  -22.9036 C   0  0  0  0  0  0  0  0  0  0  0  0
   -8.5697   -1.5794  -21.8676 O   0  0  0  0  0  0  0  0  0  0  0  0
   -2.3203    0.6667  -26.6543 C   0  0  0  0  0  0  0  0  0  0  0  0
   -0.9109    0.2465  -26.3590 C   0  0  0  0  0  0  0  0  0  0  0  0
    0.2357    1.1123  -26.7900 N   0  0  0  0  0  0  0  0  0  0  0  0
   -0.0271    2.3981  -27.5163 C   0  0  0  0  0  0  0  0  0  0  0  0
   -1.4364    2.8182  -27.8116 C   0  0  0  0  0  0  0  0  0  0  0  0
   -1.6992    4.1042  -28.5379 C   0  0  0  0  0  0  0  0  0  0  0  0
   -3.1086    4.5242  -28.8332 C   0  0  0  0  0  0  0  0  0  0  0  0
   -4.2552    3.6585  -28.4022 C   0  0  0  0  0  0  0  0  0  0  0  0
   -3.9924    2.3726  -27.6759 C   0  0  0  0  0  0  0  0  0  0  0  0
   -2.5831    1.9525  -27.3806 C   0  0  0  0  0  0  0  0  0  0  0  0
   -8.3214   -3.5646  -24.1031 C   0  0  0  0  0  0  0  0  0  0  0  0
   -8.0665   -7.5077  -23.7326 C   0  0  0  0  0  0  0  0  0  0  0  0
   -8.4938   -6.1544  -24.2185 N   0  0  0  0  0  0  0  0  0  0  0  0
   -7.8942   -4.9179  -23.6173 C   0  0  0  0  0  0  0  0  0  0  0  0
   -6.8673   -5.0347  -22.5300 O   0  0  0  0  0  0  0  0  0  0  0  0
   -9.1677   -6.0777  -24.9321 H   0  0  0  0  0  0  0  0  0  0  0  0
   -5.8921   -3.2184  -26.4832 C   0  0  0  0  0  0  0  0  0  0  0  0
   -7.0447   -3.1360  -27.4396 O   0  0  0  0  0  0  0  0  0  0  0  0
   -7.8381   -4.3665  -27.7659 C   0  0  0  0  0  0  0  0  0  0  0  0
   -9.2121   -4.2389  -28.3538 C   0  0  0  0  0  0  0  0  0  0  0  0
   -7.2574   -5.7245  -27.5042 C   0  0  0  0  0  0  0  0  0  0  0  0
 29 30  1  0  0  0
 30 31  1  0  0  0
 31 32  2  0  0  0
 31 28  1  0  0  0
 28  1  1  0  0  0
  1  2  1  0  0  0
  3  2  1  0  0  0
  3  4  1  0  0  0
  4  5  2  0  0  0
  4  6  1  0  0  0
  6 18  1  0  0  0
 18 19  2  0  0  0
 19 20  1  0  0  0
 20 21  2  0  0  0
 21 22  1  0  0  0
 22 23  2  0  0  0
 23 24  1  0  0  0
 24 25  2  0  0  0
 25 26  1  0  0  0
 26 27  2  0  0  0
  6  7  1  0  0  0
  7  8  1  0  0  0
  8 34  1  0  0  0
 34 35  1  0  0  0
 35 36  1  0  0  0
 36 37  1  0  0  0
 36 38  1  0  0  0
  3  9  1  0  0  0
  9 10  2  0  0  0
 10 11  1  0  0  0
 11 12  1  0  0  0
 11 13  2  0  0  0
 13 14  1  0  0  0
 14 15  2  0  0  0
 15 16  1  0  0  0
 16 17  2  0  0  0
 16  1  1  0  0  0
  8  3  1  0  0  0
 15  9  1  0  0  0
 27 18  1  0  0  0
 27 22  1  0  0  0
 30 33  1  0  0  0
M  END
> <minimizedAffinity>
-2.26922

> <CNNscore>
0.4210332632

> <CNNaffinity>
5.9541816711

> <CNN_VS>
2.5069086552

> <CNNaffinity_variance>
0.8453359604

$$$$



 38 42  0  0  0  0  0  0  0  0999 V2000
  -10.6925    2.9641  -24.2987 N   0  0  0  0  0  0  0  0  0  0  0  0
   -9.5000    2.0544  -24.3191 C   0  0  0  0  0  0  0  0  0  0  0  0
   -9.6570    0.6040  -23.9704 C   0  0  0  0  0  0  0  0  0  0  0  0
   -9.6598   -0.8607  -23.6471 C   0  0  0  0  0  0  0  0  0  0  0  0
  -10.4301   -1.7383  -23.3110 O   0  0  0  0  0  0  0  0  0  0  0  0
   -8.2569   -1.3707  -23.7946 N   0  0  0  0  0  0  0  0  0  0  0  0
   -7.3870   -0.2211  -24.2090 C   0  0  0  0  0  0  0  0  0  0  0  0
   -8.2524    0.9993  -24.3177 C   0  0  0  0  0  0  0  0  0  0  0  0
  -11.0067    0.0633  -23.6012 C   0  0  0  0  0  0  0  0  0  0  0  0
  -11.1637   -1.3871  -23.2525 C   0  0  0  0  0  0  0  0  0  0  0  0
  -12.5133   -1.9278  -22.8834 C   0  0  0  0  0  0  0  0  0  0  0  0
  -12.6704   -3.3783  -22.5347 F   0  0  0  0  0  0  0  0  0  0  0  0
  -13.7058   -1.0181  -22.8630 C   0  0  0  0  0  0  0  0  0  0  0  0
  -13.5487    0.4323  -23.2117 C   0  0  0  0  0  0  0  0  0  0  0  0
  -12.1991    0.9730  -23.5808 C   0  0  0  0  0  0  0  0  0  0  0  0
  -12.0420    2.4234  -23.9296 C   0  0  0  0  0  0  0  0  0  0  0  0
  -13.2345    3.3331  -23.9092 O   0  0  0  0  0  0  0  0  0  0  0  0
   -7.8035   -2.7823  -23.5675 C   0  0  0  0  0  0  0  0  0  0  0  0
   -6.9624   -3.1167  -22.3713 C   0  0  0  0  0  0  0  0  0  0  0  0
   -6.5090   -4.5284  -22.1442 N   0  0  0  0  0  0  0  0  0  0  0  0
   -6.8967   -5.6057  -23.1133 C   0  0  0  0  0  0  0  0  0  0  0  0
   -7.7377   -5.2713  -24.3095 C   0  0  0  0  0  0  0  0  0  0  0  0
   -8.1253   -6.3487  -25.2786 C   0  0  0  0  0  0  0  0  0  0  0  0
   -8.9664   -6.0142  -26.4748 C   0  0  0  0  0  0  0  0  0  0  0  0
   -9.4198   -4.6025  -26.7019 C   0  0  0  0  0  0  0  0  0  0  0  0
   -9.0322   -3.5252  -25.7328 C   0  0  0  0  0  0  0  0  0  0  0  0
   -8.1911   -3.8596  -24.5366 C   0  0  0  0  0  0  0  0  0  0  0  0
  -10.5353    4.4146  -24.6474 C   0  0  0  0  0  0  0  0  0  0  0  0
  -13.4983    6.7329  -25.9108 C   0  0  0  0  0  0  0  0  0  0  0  0
  -12.5074    6.0685  -25.0016 N   0  0  0  0  0  0  0  0  0  0  0  0
  -11.5263    5.0789  -25.5566 C   0  0  0  0  0  0  0  0  0  0  0  0
  -11.5360    4.7537  -27.0210 O   0  0  0  0  0  0  0  0  0  0  0  0
  -12.5009    6.2820  -24.0406 H   0  0  0  0  0  0  0  0  0  0  0  0
   -7.7935    2.3738  -24.7055 C   0  0  0  0  0  0  0  0  0  0  0  0
   -6.4760    2.8922  -24.2104 O   0  0  0  0  0  0  0  0  0  0  0  0
   -6.2978    3.2226  -22.7582 C   0  0  0  0  0  0  0  0  0  0  0  0
   -6.8983    4.4765  -22.1950 C   0  0  0  0  0  0  0  0  0  0  0  0
   -5.5191    2.2990  -21.8690 C   0  0  0  0  0  0  0  0  0  0  0  0
 29 30  1  0  0  0
 30 31  1  0  0  0
 31 32  2  0  0  0
 31 28  1  0  0  0
 28  1  1  0  0  0
  1  2  1  0  0  0
  3  2  1  0  0  0
  3  4  1  0  0  0
  4  5  2  0  0  0
  4  6  1  0  0  0
  6 18  1  0  0  0
 18 19  2  0  0  0
 19 20  1  0  0  0
 20 21  2  0  0  0
 21 22  1  0  0  0
 22 23  2  0  0  0
 23 24  1  0  0  0
 24 25  2  0  0  0
 25 26  1  0  0  0
 26 27  2  0  0  0
  6  7  1  0  0  0
  7  8  1  0  0  0
  8 34  1  0  0  0
 34 35  1  0  0  0
 35 36  1  0  0  0
 36 37  1  0  0  0
 36 38  1  0  0  0
  3  9  1  0  0  0
  9 10  2  0  0  0
 10 11  1  0  0  0
 11 12  1  0  0  0
 11 13  2  0  0  0
 13 14  1  0  0  0
 14 15  2  0  0  0
 15 16  1  0  0  0
 16 17  2  0  0  0
 16  1  1  0  0  0
  8  3  1  0  0  0
 15  9  1  0  0  0
 27 18  1  0  0  0
 27 22  1  0  0  0
 30 33  1  0  0  0
M  END
> <minimizedAffinity>
-7.19219

> <CNNscore>
0.3919675350

> <CNNaffinity>
6.4851255417

> <CNN_VS>
2.5419585705

> <CNNaffinity_variance>
0.1269367039

$$$$



 38 42  0  0  0  0  0  0  0  0999 V2000
   -5.4016   -6.2129  -23.6333 N   0  0  0  0  0  0  0  0  0  0  0  0
   -5.9896   -4.9635  -23.0475 C   0  0  0  0  0  0  0  0  0  0  0  0
   -7.0285   -4.1950  -23.8091 C   0  0  0  0  0  0  0  0  0  0  0  0
   -8.0700   -3.3262  -24.4498 C   0  0  0  0  0  0  0  0  0  0  0  0
   -8.7319   -3.2626  -25.4668 O   0  0  0  0  0  0  0  0  0  0  0  0
   -8.3634   -2.1892  -23.5165 N   0  0  0  0  0  0  0  0  0  0  0  0
   -7.5032   -2.3552  -22.2989 C   0  0  0  0  0  0  0  0  0  0  0  0
   -6.6782   -3.5948  -22.4797 C   0  0  0  0  0  0  0  0  0  0  0  0
   -7.4795   -4.6759  -25.1565 C   0  0  0  0  0  0  0  0  0  0  0  0
   -8.5184   -3.9074  -25.9180 C   0  0  0  0  0  0  0  0  0  0  0  0
   -8.9694   -4.3883  -27.2653 C   0  0  0  0  0  0  0  0  0  0  0  0
  -10.0083   -3.6198  -28.0269 F   0  0  0  0  0  0  0  0  0  0  0  0
   -8.3814   -5.6378  -27.8511 C   0  0  0  0  0  0  0  0  0  0  0  0
   -7.3425   -6.4063  -27.0895 C   0  0  0  0  0  0  0  0  0  0  0  0
   -6.8915   -5.9254  -25.7422 C   0  0  0  0  0  0  0  0  0  0  0  0
   -5.8526   -6.6939  -24.9806 C   0  0  0  0  0  0  0  0  0  0  0  0
   -5.2646   -7.9434  -25.5664 O   0  0  0  0  0  0  0  0  0  0  0  0
   -9.3447   -1.0808  -23.7583 C   0  0  0  0  0  0  0  0  0  0  0  0
   -8.8817    0.2127  -24.3605 C   0  0  0  0  0  0  0  0  0  0  0  0
   -9.8630    1.3211  -24.6023 N   0  0  0  0  0  0  0  0  0  0  0  0
  -11.3073    1.1361  -24.2419 C   0  0  0  0  0  0  0  0  0  0  0  0
  -11.7702   -0.1574  -23.6397 C   0  0  0  0  0  0  0  0  0  0  0  0
  -13.2145   -0.3424  -23.2792 C   0  0  0  0  0  0  0  0  0  0  0  0
  -13.6774   -1.6359  -22.6770 C   0  0  0  0  0  0  0  0  0  0  0  0
  -12.6961   -2.7443  -22.4352 C   0  0  0  0  0  0  0  0  0  0  0  0
  -11.2519   -2.5593  -22.7956 C   0  0  0  0  0  0  0  0  0  0  0  0
  -10.7889   -1.2658  -23.3978 C   0  0  0  0  0  0  0  0  0  0  0  0
   -4.3627   -6.9815  -22.8717 C   0  0  0  0  0  0  0  0  0  0  0  0
   -0.6569   -8.2948  -23.4121 C   0  0  0  0  0  0  0  0  0  0  0  0
   -2.0403   -8.1461  -22.8518 N   0  0  0  0  0  0  0  0  0  0  0  0
   -2.9792   -7.1302  -23.4319 C   0  0  0  0  0  0  0  0  0  0  0  0
   -2.5346   -6.2631  -24.5724 O   0  0  0  0  0  0  0  0  0  0  0  0
   -2.3321   -8.7152  -22.1033 H   0  0  0  0  0  0  0  0  0  0  0  0
   -5.6784   -4.1388  -21.5027 C   0  0  0  0  0  0  0  0  0  0  0  0
   -5.2579   -3.3143  -20.3224 O   0  0  0  0  0  0  0  0  0  0  0  0
   -5.4602   -1.8281  -20.3354 C   0  0  0  0  0  0  0  0  0  0  0  0
   -4.6602   -0.9704  -21.2705 C   0  0  0  0  0  0  0  0  0  0  0  0
   -6.4624   -1.1995  -19.4132 C   0  0  0  0  0  0  0  0  0  0  0  0
 29 30  1  0  0  0
 30 31  1  0  0  0
 31 32  2  0  0  0
 31 28  1  0  0  0
 28  1  1  0  0  0
  1  2  1  0  0  0
  3  2  1  0  0  0
  3  4  1  0  0  0
  4  5  2  0  0  0
  4  6  1  0  0  0
  6 18  1  0  0  0
 18 19  2  0  0  0
 19 20  1  0  0  0
 20 21  2  0  0  0
 21 22  1  0  0  0
 22 23  2  0  0  0
 23 24  1  0  0  0
 24 25  2  0  0  0
 25 26  1  0  0  0
 26 27  2  0  0  0
  6  7  1  0  0  0
  7  8  1  0  0  0
  8 34  1  0  0  0
 34 35  1  0  0  0
 35 36  1  0  0  0
 36 37  1  0  0  0
 36 38  1  0  0  0
  3  9  1  0  0  0
  9 10  2  0  0  0
 10 11  1  0  0  0
 11 12  1  0  0  0
 11 13  2  0  0  0
 13 14  1  0  0  0
 14 15  2  0  0  0
 15 16  1  0  0  0
 16 17  2  0  0  0
 16  1  1  0  0  0
  8  3  1  0  0  0
 15  9  1  0  0  0
 27 18  1  0  0  0
 27 22  1  0  0  0
 30 33  1  0  0  0
M  END
> <minimizedAffinity>
-7.83740

> <CNNscore>
0.3853455186

> <CNNaffinity>
6.4909601212

> <CNN_VS>
2.5012624264

> <CNNaffinity_variance>
0.2172109634

$$$$



 38 42  0  0  0  0  0  0  0  0999 V2000
   -6.3303   -4.9597  -22.8430 N   0  0  0  0  0  0  0  0  0  0  0  0
   -6.8384   -3.9998  -23.8776 C   0  0  0  0  0  0  0  0  0  0  0  0
   -6.8656   -2.5286  -23.5866 C   0  0  0  0  0  0  0  0  0  0  0  0
   -6.9524   -1.0383  -23.4396 C   0  0  0  0  0  0  0  0  0  0  0  0
   -6.7121   -0.1676  -22.6270 O   0  0  0  0  0  0  0  0  0  0  0  0
   -7.5165   -0.4791  -24.7121 N   0  0  0  0  0  0  0  0  0  0  0  0
   -7.7784   -1.6237  -25.6454 C   0  0  0  0  0  0  0  0  0  0  0  0
   -7.3761   -2.8904  -24.9499 C   0  0  0  0  0  0  0  0  0  0  0  0
   -6.3848   -2.0172  -22.2609 C   0  0  0  0  0  0  0  0  0  0  0  0
   -6.4121   -0.5460  -21.9699 C   0  0  0  0  0  0  0  0  0  0  0  0
   -5.9313   -0.0347  -20.6443 C   0  0  0  0  0  0  0  0  0  0  0  0
   -5.9585    1.4366  -20.3532 F   0  0  0  0  0  0  0  0  0  0  0  0
   -5.4232   -0.9946  -19.6096 C   0  0  0  0  0  0  0  0  0  0  0  0
   -5.3960   -2.4658  -19.9006 C   0  0  0  0  0  0  0  0  0  0  0  0
   -5.8768   -2.9771  -21.2263 C   0  0  0  0  0  0  0  0  0  0  0  0
   -5.8495   -4.4484  -21.5173 C   0  0  0  0  0  0  0  0  0  0  0  0
   -5.3415   -5.4083  -20.4827 O   0  0  0  0  0  0  0  0  0  0  0  0
   -7.7736    0.9703  -25.0004 C   0  0  0  0  0  0  0  0  0  0  0  0
   -6.7147    1.8031  -25.6602 C   0  0  0  0  0  0  0  0  0  0  0  0
   -6.9718    3.2525  -25.9486 N   0  0  0  0  0  0  0  0  0  0  0  0
   -8.2878    3.8691  -25.5772 C   0  0  0  0  0  0  0  0  0  0  0  0
   -9.3467    3.0363  -24.9174 C   0  0  0  0  0  0  0  0  0  0  0  0
  -10.6627    3.6530  -24.5460 C   0  0  0  0  0  0  0  0  0  0  0  0
  -11.7216    2.8201  -23.8862 C   0  0  0  0  0  0  0  0  0  0  0  0
  -11.4645    1.3707  -23.5978 C   0  0  0  0  0  0  0  0  0  0  0  0
  -10.1485    0.7541  -23.9692 C   0  0  0  0  0  0  0  0  0  0  0  0
   -9.0896    1.5869  -24.6290 C   0  0  0  0  0  0  0  0  0  0  0  0
   -6.3031   -6.4310  -23.1340 C   0  0  0  0  0  0  0  0  0  0  0  0
   -2.5002   -7.5238  -23.4410 C   0  0  0  0  0  0  0  0  0  0  0  0
   -3.7539   -6.8853  -22.9208 N   0  0  0  0  0  0  0  0  0  0  0  0
   -5.0494   -7.0695  -23.6542 C   0  0  0  0  0  0  0  0  0  0  0  0
   -5.0912   -7.8923  -24.9077 O   0  0  0  0  0  0  0  0  0  0  0  0
   -3.7265   -6.3452  -22.0981 H   0  0  0  0  0  0  0  0  0  0  0  0
   -7.4681   -4.2756  -25.5179 C   0  0  0  0  0  0  0  0  0  0  0  0
   -8.5269   -4.6030  -26.5286 O   0  0  0  0  0  0  0  0  0  0  0  0
   -9.8997   -5.0020  -26.0745 C   0  0  0  0  0  0  0  0  0  0  0  0
  -10.5262   -6.2607  -26.5972 C   0  0  0  0  0  0  0  0  0  0  0  0
  -10.6460   -4.1424  -25.0977 C   0  0  0  0  0  0  0  0  0  0  0  0
 29 30  1  0  0  0
 30 31  1  0  0  0
 31 32  2  0  0  0
 31 28  1  0  0  0
 28  1  1  0  0  0
  1  2  1  0  0  0
  3  2  1  0  0  0
  3  4  1  0  0  0
  4  5  2  0  0  0
  4  6  1  0  0  0
  6 18  1  0  0  0
 18 19  2  0  0  0
 19 20  1  0  0  0
 20 21  2  0  0  0
 21 22  1  0  0  0
 22 23  2  0  0  0
 23 24  1  0  0  0
 24 25  2  0  0  0
 25 26  1  0  0  0
 26 27  2  0  0  0
  6  7  1  0  0  0
  7  8  1  0  0  0
  8 34  1  0  0  0
 34 35  1  0  0  0
 35 36  1  0  0  0
 36 37  1  0  0  0
 36 38  1  0  0  0
  3  9  1  0  0  0
  9 10  2  0  0  0
 10 11  1  0  0  0
 11 12  1  0  0  0
 11 13  2  0  0  0
 13 14  1  0  0  0
 14 15  2  0  0  0
 15 16  1  0  0  0
 16 17  2  0  0  0
 16  1  1  0  0  0
  8  3  1  0  0  0
 15  9  1  0  0  0
 27 18  1  0  0  0
 27 22  1  0  0  0
 30 33  1  0  0  0
M  END
> <minimizedAffinity>
-7.23907

> <CNNscore>
0.3571693003

> <CNNaffinity>
6.3205909729

> <CNN_VS>
2.2575211525

> <CNNaffinity_variance>
0.0564476252

$$$$



 38 42  0  0  0  0  0  0  0  0999 V2000
   -7.5802   -3.0092  -22.4379 N   0  0  0  0  0  0  0  0  0  0  0  0
   -8.5160   -2.0137  -23.0570 C   0  0  0  0  0  0  0  0  0  0  0  0
   -8.2022   -0.5483  -22.9922 C   0  0  0  0  0  0  0  0  0  0  0  0
   -8.0220    0.9407  -23.0064 C   0  0  0  0  0  0  0  0  0  0  0  0
   -7.2398    1.7874  -22.6222 O   0  0  0  0  0  0  0  0  0  0  0  0
   -9.1909    1.5423  -23.7288 N   0  0  0  0  0  0  0  0  0  0  0  0
  -10.0935    0.4250  -24.1611 C   0  0  0  0  0  0  0  0  0  0  0  0
   -9.4824   -0.8671  -23.7059 C   0  0  0  0  0  0  0  0  0  0  0  0
   -6.9525   -0.0784  -22.3083 C   0  0  0  0  0  0  0  0  0  0  0  0
   -6.6387    1.3869  -22.2435 C   0  0  0  0  0  0  0  0  0  0  0  0
   -5.3892    1.8568  -21.5596 C   0  0  0  0  0  0  0  0  0  0  0  0
   -5.0753    3.3222  -21.4948 F   0  0  0  0  0  0  0  0  0  0  0  0
   -4.4534    0.8613  -20.9404 C   0  0  0  0  0  0  0  0  0  0  0  0
   -4.7672   -0.6040  -21.0052 C   0  0  0  0  0  0  0  0  0  0  0  0
   -6.0168   -1.0739  -21.6891 C   0  0  0  0  0  0  0  0  0  0  0  0
   -6.3306   -2.5393  -21.7539 C   0  0  0  0  0  0  0  0  0  0  0  0
   -5.3949   -3.5348  -21.1348 O   0  0  0  0  0  0  0  0  0  0  0  0
   -9.4173    3.0044  -23.9756 C   0  0  0  0  0  0  0  0  0  0  0  0
   -8.2643    3.8902  -24.3443 C   0  0  0  0  0  0  0  0  0  0  0  0
   -8.4908    5.3523  -24.5910 N   0  0  0  0  0  0  0  0  0  0  0  0
   -9.8703    5.9286  -24.4692 C   0  0  0  0  0  0  0  0  0  0  0  0
  -11.0233    5.0428  -24.1006 C   0  0  0  0  0  0  0  0  0  0  0  0
  -12.4029    5.6191  -23.9788 C   0  0  0  0  0  0  0  0  0  0  0  0
  -13.5558    4.7332  -23.6102 C   0  0  0  0  0  0  0  0  0  0  0  0
  -13.3293    3.2711  -23.3634 C   0  0  0  0  0  0  0  0  0  0  0  0
  -11.9499    2.6948  -23.4852 C   0  0  0  0  0  0  0  0  0  0  0  0
  -10.7968    3.5807  -23.8538 C   0  0  0  0  0  0  0  0  0  0  0  0
   -7.8940   -4.4746  -22.5027 C   0  0  0  0  0  0  0  0  0  0  0  0
   -5.0916   -5.9818  -24.8742 C   0  0  0  0  0  0  0  0  0  0  0  0
   -5.7711   -5.1136  -23.8572 N   0  0  0  0  0  0  0  0  0  0  0  0
   -7.2145   -5.3428  -23.5197 C   0  0  0  0  0  0  0  0  0  0  0  0
   -7.9785   -6.4404  -24.1993 O   0  0  0  0  0  0  0  0  0  0  0  0
   -5.2697   -4.3932  -23.4112 H   0  0  0  0  0  0  0  0  0  0  0  0
  -10.0517   -2.2373  -23.9257 C   0  0  0  0  0  0  0  0  0  0  0  0
  -11.0708   -2.7879  -22.9727 O   0  0  0  0  0  0  0  0  0  0  0  0
  -12.4170   -2.1367  -22.8554 C   0  0  0  0  0  0  0  0  0  0  0  0
  -12.7683   -0.9764  -23.7387 C   0  0  0  0  0  0  0  0  0  0  0  0
  -13.4118   -2.6459  -21.8550 C   0  0  0  0  0  0  0  0  0  0  0  0
 29 30  1  0  0  0
 30 31  1  0  0  0
 31 32  2  0  0  0
 31 28  1  0  0  0
 28  1  1  0  0  0
  1  2  1  0  0  0
  3  2  1  0  0  0
  3  4  1  0  0  0
  4  5  2  0  0  0
  4  6  1  0  0  0
  6 18  1  0  0  0
 18 19  2  0  0  0
 19 20  1  0  0  0
 20 21  2  0  0  0
 21 22  1  0  0  0
 22 23  2  0  0  0
 23 24  1  0  0  0
 24 25  2  0  0  0
 25 26  1  0  0  0
 26 27  2  0  0  0
  6  7  1  0  0  0
  7  8  1  0  0  0
  8 34  1  0  0  0
 34 35  1  0  0  0
 35 36  1  0  0  0
 36 37  1  0  0  0
 36 38  1  0  0  0
  3  9  1  0  0  0
  9 10  2  0  0  0
 10 11  1  0  0  0
 11 12  1  0  0  0
 11 13  2  0  0  0
 13 14  1  0  0  0
 14 15  2  0  0  0
 15 16  1  0  0  0
 16 17  2  0  0  0
 16  1  1  0  0  0
  8  3  1  0  0  0
 15  9  1  0  0  0
 27 18  1  0  0  0
 27 22  1  0  0  0
 30 33  1  0  0  0
M  END
> <minimizedAffinity>
-7.68297

> <CNNscore>
0.3463921845

> <CNNaffinity>
6.6238355637

> <CNN_VS>
2.2944447994

> <CNNaffinity_variance>
0.2446850538

$$$$



 38 42  0  0  0  0  0  0  0  0999 V2000
   -7.1455   -1.1964  -22.4118 N   0  0  0  0  0  0  0  0  0  0  0  0
   -7.2542    0.1810  -22.9957 C   0  0  0  0  0  0  0  0  0  0  0  0
   -8.5760    0.6798  -23.4996 C   0  0  0  0  0  0  0  0  0  0  0  0
   -9.8239    1.3120  -24.0409 C   0  0  0  0  0  0  0  0  0  0  0  0
  -11.0004    1.0570  -24.2057 O   0  0  0  0  0  0  0  0  0  0  0  0
   -9.4751    2.6898  -24.5205 N   0  0  0  0  0  0  0  0  0  0  0  0
   -8.0116    2.9091  -24.2757 C   0  0  0  0  0  0  0  0  0  0  0  0
   -7.4559    1.6668  -23.6447 C   0  0  0  0  0  0  0  0  0  0  0  0
   -9.7892   -0.1989  -23.4197 C   0  0  0  0  0  0  0  0  0  0  0  0
  -11.1110    0.2999  -23.9237 C   0  0  0  0  0  0  0  0  0  0  0  0
  -12.3240   -0.5788  -23.8438 C   0  0  0  0  0  0  0  0  0  0  0  0
  -13.6459   -0.0800  -24.3477 F   0  0  0  0  0  0  0  0  0  0  0  0
  -12.2153   -1.9562  -23.2599 C   0  0  0  0  0  0  0  0  0  0  0  0
  -10.8935   -2.4550  -22.7560 C   0  0  0  0  0  0  0  0  0  0  0  0
   -9.6804   -1.5763  -22.8359 C   0  0  0  0  0  0  0  0  0  0  0  0
   -8.3585   -2.0751  -22.3319 C   0  0  0  0  0  0  0  0  0  0  0  0
   -8.2498   -3.4525  -21.7481 O   0  0  0  0  0  0  0  0  0  0  0  0
  -10.4234    3.6752  -25.1368 C   0  0  0  0  0  0  0  0  0  0  0  0
  -10.2347    4.1081  -26.5605 C   0  0  0  0  0  0  0  0  0  0  0  0
  -11.1829    5.0935  -27.1767 N   0  0  0  0  0  0  0  0  0  0  0  0
  -12.3198    5.6460  -26.3692 C   0  0  0  0  0  0  0  0  0  0  0  0
  -12.5085    5.2131  -24.9455 C   0  0  0  0  0  0  0  0  0  0  0  0
  -13.6455    5.7657  -24.1380 C   0  0  0  0  0  0  0  0  0  0  0  0
  -13.8341    5.3328  -22.7142 C   0  0  0  0  0  0  0  0  0  0  0  0
  -12.8859    4.3474  -22.0980 C   0  0  0  0  0  0  0  0  0  0  0  0
  -11.7490    3.7948  -22.9055 C   0  0  0  0  0  0  0  0  0  0  0  0
  -11.5603    4.2277  -24.3292 C   0  0  0  0  0  0  0  0  0  0  0  0
   -5.8236   -1.6952  -21.9079 C   0  0  0  0  0  0  0  0  0  0  0  0
   -5.3953   -0.3424  -18.2016 C   0  0  0  0  0  0  0  0  0  0  0  0
   -5.7017   -0.3820  -19.6694 N   0  0  0  0  0  0  0  0  0  0  0  0
   -5.5172   -1.6556  -20.4400 C   0  0  0  0  0  0  0  0  0  0  0  0
   -5.0263   -2.8897  -19.7428 O   0  0  0  0  0  0  0  0  0  0  0  0
   -6.0239    0.4279  -20.1271 H   0  0  0  0  0  0  0  0  0  0  0  0
   -6.0304    1.4498  -23.2315 C   0  0  0  0  0  0  0  0  0  0  0  0
   -5.5457    1.9666  -21.9095 O   0  0  0  0  0  0  0  0  0  0  0  0
   -4.1131    2.3795  -21.7451 C   0  0  0  0  0  0  0  0  0  0  0  0
   -3.4382    2.2323  -20.4136 C   0  0  0  0  0  0  0  0  0  0  0  0
   -3.3553    2.9395  -22.9122 C   0  0  0  0  0  0  0  0  0  0  0  0
 29 30  1  0  0  0
 30 31  1  0  0  0
 31 32  2  0  0  0
 31 28  1  0  0  0
 28  1  1  0  0  0
  1  2  1  0  0  0
  3  2  1  0  0  0
  3  4  1  0  0  0
  4  5  2  0  0  0
  4  6  1  0  0  0
  6 18  1  0  0  0
 18 19  2  0  0  0
 19 20  1  0  0  0
 20 21  2  0  0  0
 21 22  1  0  0  0
 22 23  2  0  0  0
 23 24  1  0  0  0
 24 25  2  0  0  0
 25 26  1  0  0  0
 26 27  2  0  0  0
  6  7  1  0  0  0
  7  8  1  0  0  0
  8 34  1  0  0  0
 34 35  1  0  0  0
 35 36  1  0  0  0
 36 37  1  0  0  0
 36 38  1  0  0  0
  3  9  1  0  0  0
  9 10  2  0  0  0
 10 11  1  0  0  0
 11 12  1  0  0  0
 11 13  2  0  0  0
 13 14  1  0  0  0
 14 15  2  0  0  0
 15 16  1  0  0  0
 16 17  2  0  0  0
 16  1  1  0  0  0
  8  3  1  0  0  0
 15  9  1  0  0  0
 27 18  1  0  0  0
 27 22  1  0  0  0
 30 33  1  0  0  0
M  END
> <minimizedAffinity>
-7.42795

> <CNNscore>
0.3209486604

> <CNNaffinity>
6.2678556442

> <CNN_VS>
2.0116598606

> <CNNaffinity_variance>
0.0856164247

$$$$



 38 42  0  0  0  0  0  0  0  0999 V2000
   -9.6736    2.6279  -24.5824 N   0  0  0  0  0  0  0  0  0  0  0  0
   -8.6958    1.4961  -24.6960 C   0  0  0  0  0  0  0  0  0  0  0  0
   -9.1203    0.1003  -24.3475 C   0  0  0  0  0  0  0  0  0  0  0  0
   -9.3989   -1.3402  -24.0356 C   0  0  0  0  0  0  0  0  0  0  0  0
  -10.3064   -2.0507  -23.6510 O   0  0  0  0  0  0  0  0  0  0  0  0
   -8.1430   -2.1205  -24.2883 N   0  0  0  0  0  0  0  0  0  0  0  0
   -7.0882   -1.1622  -24.7564 C   0  0  0  0  0  0  0  0  0  0  0  0
   -7.6922    0.2103  -24.7929 C   0  0  0  0  0  0  0  0  0  0  0  0
  -10.5227   -0.1637  -23.8853 C   0  0  0  0  0  0  0  0  0  0  0  0
  -10.9473   -1.5595  -23.5368 C   0  0  0  0  0  0  0  0  0  0  0  0
  -12.3496   -1.8235  -23.0746 C   0  0  0  0  0  0  0  0  0  0  0  0
  -12.7742   -3.2194  -22.7261 F   0  0  0  0  0  0  0  0  0  0  0  0
  -13.3275   -0.6917  -22.9610 C   0  0  0  0  0  0  0  0  0  0  0  0
  -12.9029    0.7041  -23.3095 C   0  0  0  0  0  0  0  0  0  0  0  0
  -11.5006    0.9681  -23.7716 C   0  0  0  0  0  0  0  0  0  0  0  0
  -11.0760    2.3639  -24.1202 C   0  0  0  0  0  0  0  0  0  0  0  0
  -12.0538    3.4957  -24.0066 O   0  0  0  0  0  0  0  0  0  0  0  0
   -7.9719   -3.5994  -24.1051 C   0  0  0  0  0  0  0  0  0  0  0  0
   -7.3615   -4.1332  -22.8432 C   0  0  0  0  0  0  0  0  0  0  0  0
   -7.1904   -5.6121  -22.6600 N   0  0  0  0  0  0  0  0  0  0  0  0
   -7.6298   -6.5572  -23.7388 C   0  0  0  0  0  0  0  0  0  0  0  0
   -8.2402   -6.0234  -25.0007 C   0  0  0  0  0  0  0  0  0  0  0  0
   -8.6795   -6.9686  -26.0795 C   0  0  0  0  0  0  0  0  0  0  0  0
   -9.2899   -6.4347  -27.3414 C   0  0  0  0  0  0  0  0  0  0  0  0
   -9.4610   -4.9558  -27.5246 C   0  0  0  0  0  0  0  0  0  0  0  0
   -9.0216   -4.0107  -26.4458 C   0  0  0  0  0  0  0  0  0  0  0  0
   -8.4112   -4.5445  -25.1839 C   0  0  0  0  0  0  0  0  0  0  0  0
   -9.2490    4.0237  -24.9309 C   0  0  0  0  0  0  0  0  0  0  0  0
   -7.1077    5.2749  -21.8326 C   0  0  0  0  0  0  0  0  0  0  0  0
   -7.6802    4.3789  -22.8906 N   0  0  0  0  0  0  0  0  0  0  0  0
   -8.6765    4.9197  -23.8729 C   0  0  0  0  0  0  0  0  0  0  0  0
   -9.1002    6.3567  -23.7972 O   0  0  0  0  0  0  0  0  0  0  0  0
   -7.4021    3.4358  -22.9404 H   0  0  0  0  0  0  0  0  0  0  0  0
   -6.9912    1.4714  -25.2030 C   0  0  0  0  0  0  0  0  0  0  0  0
   -5.5281    1.6423  -24.9201 O   0  0  0  0  0  0  0  0  0  0  0  0
   -4.9634    3.0130  -24.6913 C   0  0  0  0  0  0  0  0  0  0  0  0
   -5.2795    4.1237  -25.6486 C   0  0  0  0  0  0  0  0  0  0  0  0
   -4.0826    3.2729  -23.5053 C   0  0  0  0  0  0  0  0  0  0  0  0
 29 30  1  0  0  0
 30 31  1  0  0  0
 31 32  2  0  0  0
 31 28  1  0  0  0
 28  1  1  0  0  0
  1  2  1  0  0  0
  3  2  1  0  0  0
  3  4  1  0  0  0
  4  5  2  0  0  0
  4  6  1  0  0  0
  6 18  1  0  0  0
 18 19  2  0  0  0
 19 20  1  0  0  0
 20 21  2  0  0  0
 21 22  1  0  0  0
 22 23  2  0  0  0
 23 24  1  0  0  0
 24 25  2  0  0  0
 25 26  1  0  0  0
 26 27  2  0  0  0
  6  7  1  0  0  0
  7  8  1  0  0  0
  8 34  1  0  0  0
 34 35  1  0  0  0
 35 36  1  0  0  0
 36 37  1  0  0  0
 36 38  1  0  0  0
  3  9  1  0  0  0
  9 10  2  0  0  0
 10 11  1  0  0  0
 11 12  1  0  0  0
 11 13  2  0  0  0
 13 14  1  0  0  0
 14 15  2  0  0  0
 15 16  1  0  0  0
 16 17  2  0  0  0
 16  1  1  0  0  0
  8  3  1  0  0  0
 15  9  1  0  0  0
 27 18  1  0  0  0
 27 22  1  0  0  0
 30 33  1  0  0  0
M  END
> <minimizedAffinity>
-7.02907

> <CNNscore>
0.2907605171

> <CNNaffinity>
6.3529343605

> <CNN_VS>
1.8471825123

> <CNNaffinity_variance>
0.1443672478

$$$$



 38 42  0  0  0  0  0  0  0  0999 V2000
   -8.3846   -2.7428  -22.7465 N   0  0  0  0  0  0  0  0  0  0  0  0
   -9.5581   -1.9010  -23.1517 C   0  0  0  0  0  0  0  0  0  0  0  0
   -9.4625   -0.4050  -23.0970 C   0  0  0  0  0  0  0  0  0  0  0  0
   -9.5148    1.0940  -23.0949 C   0  0  0  0  0  0  0  0  0  0  0  0
   -8.8119    2.0496  -22.8319 O   0  0  0  0  0  0  0  0  0  0  0  0
  -10.8744    1.5111  -23.5720 N   0  0  0  0  0  0  0  0  0  0  0  0
  -11.6623    0.2698  -23.8691 C   0  0  0  0  0  0  0  0  0  0  0  0
  -10.7897   -0.9144  -23.5755 C   0  0  0  0  0  0  0  0  0  0  0  0
   -8.1933    0.2491  -22.6371 C   0  0  0  0  0  0  0  0  0  0  0  0
   -8.0977    1.7450  -22.5824 C   0  0  0  0  0  0  0  0  0  0  0  0
   -6.8286    2.3991  -22.1226 C   0  0  0  0  0  0  0  0  0  0  0  0
   -6.7330    3.8951  -22.0679 F   0  0  0  0  0  0  0  0  0  0  0  0
   -5.6551    1.5573  -21.7174 C   0  0  0  0  0  0  0  0  0  0  0  0
   -5.7507    0.0614  -21.7720 C   0  0  0  0  0  0  0  0  0  0  0  0
   -7.0198   -0.5927  -22.2319 C   0  0  0  0  0  0  0  0  0  0  0  0
   -7.1155   -2.0887  -22.2866 C   0  0  0  0  0  0  0  0  0  0  0  0
   -5.9420   -2.9306  -21.8814 O   0  0  0  0  0  0  0  0  0  0  0  0
  -11.3606    2.9218  -23.7252 C   0  0  0  0  0  0  0  0  0  0  0  0
  -12.2667    3.5195  -22.6899 C   0  0  0  0  0  0  0  0  0  0  0  0
  -12.7529    4.9302  -22.8431 N   0  0  0  0  0  0  0  0  0  0  0  0
  -12.3330    5.7433  -24.0316 C   0  0  0  0  0  0  0  0  0  0  0  0
  -11.4269    5.1456  -25.0669 C   0  0  0  0  0  0  0  0  0  0  0  0
  -11.0071    5.9588  -26.2555 C   0  0  0  0  0  0  0  0  0  0  0  0
  -10.1010    5.3610  -27.2908 C   0  0  0  0  0  0  0  0  0  0  0  0
   -9.6148    3.9503  -27.1376 C   0  0  0  0  0  0  0  0  0  0  0  0
  -10.0346    3.1373  -25.9491 C   0  0  0  0  0  0  0  0  0  0  0  0
  -10.9407    3.7349  -24.9138 C   0  0  0  0  0  0  0  0  0  0  0  0
   -8.4802   -4.2388  -22.8012 C   0  0  0  0  0  0  0  0  0  0  0  0
   -5.3592   -6.6391  -23.2991 C   0  0  0  0  0  0  0  0  0  0  0  0
   -6.4427   -5.8421  -22.6350 N   0  0  0  0  0  0  0  0  0  0  0  0
   -7.3968   -5.0358  -23.4653 C   0  0  0  0  0  0  0  0  0  0  0  0
   -7.2676   -5.0264  -24.9597 O   0  0  0  0  0  0  0  0  0  0  0  0
   -6.5275   -5.8483  -21.6542 H   0  0  0  0  0  0  0  0  0  0  0  0
  -11.1764   -2.3552  -23.7329 C   0  0  0  0  0  0  0  0  0  0  0  0
  -11.9927   -3.0327  -22.6725 O   0  0  0  0  0  0  0  0  0  0  0  0
  -13.2983   -2.4372  -22.2360 C   0  0  0  0  0  0  0  0  0  0  0  0
  -13.9344   -2.8831  -20.9528 C   0  0  0  0  0  0  0  0  0  0  0  0
  -13.9680   -1.3957  -23.0826 C   0  0  0  0  0  0  0  0  0  0  0  0
 29 30  1  0  0  0
 30 31  1  0  0  0
 31 32  2  0  0  0
 31 28  1  0  0  0
 28  1  1  0  0  0
  1  2  1  0  0  0
  3  2  1  0  0  0
  3  4  1  0  0  0
  4  5  2  0  0  0
  4  6  1  0  0  0
  6 18  1  0  0  0
 18 19  2  0  0  0
 19 20  1  0  0  0
 20 21  2  0  0  0
 21 22  1  0  0  0
 22 23  2  0  0  0
 23 24  1  0  0  0
 24 25  2  0  0  0
 25 26  1  0  0  0
 26 27  2  0  0  0
  6  7  1  0  0  0
  7  8  1  0  0  0
  8 34  1  0  0  0
 34 35  1  0  0  0
 35 36  1  0  0  0
 36 37  1  0  0  0
 36 38  1  0  0  0
  3  9  1  0  0  0
  9 10  2  0  0  0
 10 11  1  0  0  0
 11 12  1  0  0  0
 11 13  2  0  0  0
 13 14  1  0  0  0
 14 15  2  0  0  0
 15 16  1  0  0  0
 16 17  2  0  0  0
 16  1  1  0  0  0
  8  3  1  0  0  0
 15  9  1  0  0  0
 27 18  1  0  0  0
 27 22  1  0  0  0
 30 33  1  0  0  0
M  END
> <minimizedAffinity>
-7.03124

> <CNNscore>
0.2783596516

> <CNNaffinity>
6.4554190636

> <CNN_VS>
1.7969281673

> <CNNaffinity_variance>
0.0311172064

$$$$
