


 38 42  0  0  0  0  0  0  0  0999 V2000
    4.9347    1.4489   22.1912 N   0  0  0  0  0  0  0  0  0  0  0  0
    6.2714    0.7929   22.3727 C   0  0  0  0  0  0  0  0  0  0  0  0
    6.5313   -0.0583   23.5800 C   0  0  0  0  0  0  0  0  0  0  0  0
    6.9355   -0.9327   24.7298 C   0  0  0  0  0  0  0  0  0  0  0  0
    6.4789   -1.3839   25.7615 O   0  0  0  0  0  0  0  0  0  0  0  0
    8.3525   -1.3700   24.5040 N   0  0  0  0  0  0  0  0  0  0  0  0
    8.8241   -0.7658   23.2147 C   0  0  0  0  0  0  0  0  0  0  0  0
    7.6986    0.0449   22.6436 C   0  0  0  0  0  0  0  0  0  0  0  0
    5.4545   -0.2536   24.6060 C   0  0  0  0  0  0  0  0  0  0  0  0
    5.7145   -1.1049   25.8134 C   0  0  0  0  0  0  0  0  0  0  0  0
    4.6377   -1.3001   26.8392 C   0  0  0  0  0  0  0  0  0  0  0  0
    4.8976   -2.1514   28.0467 F   0  0  0  0  0  0  0  0  0  0  0  0
    3.3010   -0.6441   26.6577 C   0  0  0  0  0  0  0  0  0  0  0  0
    3.0411    0.2072   25.4503 C   0  0  0  0  0  0  0  0  0  0  0  0
    4.1179    0.4024   24.4245 C   0  0  0  0  0  0  0  0  0  0  0  0
    3.8580    1.2537   23.2170 C   0  0  0  0  0  0  0  0  0  0  0  0
    2.5213    1.9097   23.0355 O   0  0  0  0  0  0  0  0  0  0  0  0
    9.1566   -2.2558   25.4088 C   0  0  0  0  0  0  0  0  0  0  0  0
    8.4678   -3.2776   26.2641 C   0  0  0  0  0  0  0  0  0  0  0  0
    9.2720   -4.1635   27.1688 N   0  0  0  0  0  0  0  0  0  0  0  0
   10.7650   -4.0276   27.2183 C   0  0  0  0  0  0  0  0  0  0  0  0
   11.4538   -3.0058   26.3630 C   0  0  0  0  0  0  0  0  0  0  0  0
   12.9469   -2.8699   26.4125 C   0  0  0  0  0  0  0  0  0  0  0  0
   13.6356   -1.8480   25.5572 C   0  0  0  0  0  0  0  0  0  0  0  0
   12.8315   -0.9622   24.6524 C   0  0  0  0  0  0  0  0  0  0  0  0
   11.3385   -1.0981   24.6030 C   0  0  0  0  0  0  0  0  0  0  0  0
   10.6496   -2.1199   25.4582 C   0  0  0  0  0  0  0  0  0  0  0  0
    4.6748    2.3002   20.9837 C   0  0  0  0  0  0  0  0  0  0  0  0
    6.0090    6.0196   21.3522 C   0  0  0  0  0  0  0  0  0  0  0  0
    5.9941    4.5245   21.2330 N   0  0  0  0  0  0  0  0  0  0  0  0
    4.6897    3.7954   21.1030 C   0  0  0  0  0  0  0  0  0  0  0  0
    3.4001    4.5615   21.0922 O   0  0  0  0  0  0  0  0  0  0  0  0
    6.8405    4.0217   21.2401 H   0  0  0  0  0  0  0  0  0  0  0  0
    7.7341    0.8222   21.3612 C   0  0  0  0  0  0  0  0  0  0  0  0
    8.7127    1.9462   21.1924 O   0  0  0  0  0  0  0  0  0  0  0  0
    9.3558    2.5681   22.3964 C   0  0  0  0  0  0  0  0  0  0  0  0
   10.7642    2.2068   22.7651 C   0  0  0  0  0  0  0  0  0  0  0  0
    8.5906    3.5513   23.2317 C   0  0  0  0  0  0  0  0  0  0  0  0
 29 30  1  0  0  0
 30 31  1  0  0  0
 31 32  2  0  0  0
 31 28  1  0  0  0
 28  1  1  0  0  0
  1  2  1  0  0  0
  3  2  1  0  0  0
  3  4  1  0  0  0
  4  5  2  0  0  0
  4  6  1  0  0  0
  6 18  1  0  0  0
 18 19  2  0  0  0
 19 20  1  0  0  0
 20 21  2  0  0  0
 21 22  1  0  0  0
 22 23  2  0  0  0
 23 24  1  0  0  0
 24 25  2  0  0  0
 25 26  1  0  0  0
 26 27  2  0  0  0
  6  7  1  0  0  0
  7  8  1  0  0  0
  8 34  1  0  0  0
 34 35  1  0  0  0
 35 36  1  0  0  0
 36 37  1  0  0  0
 36 38  1  0  0  0
  3  9  1  0  0  0
  9 10  2  0  0  0
 10 11  1  0  0  0
 11 12  1  0  0  0
 11 13  2  0  0  0
 13 14  1  0  0  0
 14 15  2  0  0  0
 15 16  1  0  0  0
 16 17  2  0  0  0
 16  1  1  0  0  0
  8  3  1  0  0  0
 15  9  1  0  0  0
 27 18  1  0  0  0
 27 22  1  0  0  0
 30 33  1  0  0  0
M  END
> <minimizedAffinity>
-7.33724

> <CNNscore>
0.4534367025

> <CNNaffinity>
6.6177587509

> <CNN_VS>
3.0007348061

> <CNNaffinity_variance>
0.1554172933

$$$$



 38 42  0  0  0  0  0  0  0  0999 V2000
    5.0308    1.2795   21.4206 N   0  0  0  0  0  0  0  0  0  0  0  0
    5.9490    0.1088   21.6110 C   0  0  0  0  0  0  0  0  0  0  0  0
    7.3470    0.3255   22.1098 C   0  0  0  0  0  0  0  0  0  0  0  0
    8.7637    0.3866   22.5988 C   0  0  0  0  0  0  0  0  0  0  0  0
    9.5878    1.2011   22.9646 O   0  0  0  0  0  0  0  0  0  0  0  0
    9.3021   -1.0130   22.6359 N   0  0  0  0  0  0  0  0  0  0  0  0
    8.2181   -1.9391   22.1698 C   0  0  0  0  0  0  0  0  0  0  0  0
    7.0097   -1.1119   21.8447 C   0  0  0  0  0  0  0  0  0  0  0  0
    7.8267    1.7129   22.4183 C   0  0  0  0  0  0  0  0  0  0  0  0
    9.2246    1.9296   22.9171 C   0  0  0  0  0  0  0  0  0  0  0  0
    9.7042    3.3169   23.2254 C   0  0  0  0  0  0  0  0  0  0  0  0
   11.1022    3.5337   23.7243 F   0  0  0  0  0  0  0  0  0  0  0  0
    8.7859    4.4876   23.0350 C   0  0  0  0  0  0  0  0  0  0  0  0
    7.3880    4.2709   22.5362 C   0  0  0  0  0  0  0  0  0  0  0  0
    6.9084    2.8836   22.2278 C   0  0  0  0  0  0  0  0  0  0  0  0
    5.5104    2.6668   21.7290 C   0  0  0  0  0  0  0  0  0  0  0  0
    4.5921    3.8375   21.5386 O   0  0  0  0  0  0  0  0  0  0  0  0
   10.6822   -1.4157   23.0638 C   0  0  0  0  0  0  0  0  0  0  0  0
   11.8580   -1.1180   22.1813 C   0  0  0  0  0  0  0  0  0  0  0  0
   13.2380   -1.5207   22.6092 N   0  0  0  0  0  0  0  0  0  0  0  0
   13.4423   -2.2211   23.9198 C   0  0  0  0  0  0  0  0  0  0  0  0
   12.2666   -2.5188   24.8024 C   0  0  0  0  0  0  0  0  0  0  0  0
   12.4709   -3.2193   26.1130 C   0  0  0  0  0  0  0  0  0  0  0  0
   11.2951   -3.5170   26.9956 C   0  0  0  0  0  0  0  0  0  0  0  0
    9.9150   -3.1143   26.5676 C   0  0  0  0  0  0  0  0  0  0  0  0
    9.7107   -2.4138   25.2570 C   0  0  0  0  0  0  0  0  0  0  0  0
   10.8865   -2.1161   24.3744 C   0  0  0  0  0  0  0  0  0  0  0  0
    3.6328    1.0628   20.9218 C   0  0  0  0  0  0  0  0  0  0  0  0
    1.2740    3.9752   19.6165 C   0  0  0  0  0  0  0  0  0  0  0  0
    1.9101    2.9671   20.5270 N   0  0  0  0  0  0  0  0  0  0  0  0
    2.9967    2.0708   20.0112 C   0  0  0  0  0  0  0  0  0  0  0  0
    3.4472    2.1827   18.5848 O   0  0  0  0  0  0  0  0  0  0  0  0
    1.6144    2.8937   21.4632 H   0  0  0  0  0  0  0  0  0  0  0  0
    5.6950   -1.6309   21.3426 C   0  0  0  0  0  0  0  0  0  0  0  0
    5.2637   -3.0283   21.6759 O   0  0  0  0  0  0  0  0  0  0  0  0
    5.8223   -3.7174   22.8855 C   0  0  0  0  0  0  0  0  0  0  0  0
    6.6670   -4.9465   22.7254 C   0  0  0  0  0  0  0  0  0  0  0  0
    5.5360   -3.1773   24.2553 C   0  0  0  0  0  0  0  0  0  0  0  0
 29 30  1  0  0  0
 30 31  1  0  0  0
 31 32  2  0  0  0
 31 28  1  0  0  0
 28  1  1  0  0  0
  1  2  1  0  0  0
  3  2  1  0  0  0
  3  4  1  0  0  0
  4  5  2  0  0  0
  4  6  1  0  0  0
  6 18  1  0  0  0
 18 19  2  0  0  0
 19 20  1  0  0  0
 20 21  2  0  0  0
 21 22  1  0  0  0
 22 23  2  0  0  0
 23 24  1  0  0  0
 24 25  2  0  0  0
 25 26  1  0  0  0
 26 27  2  0  0  0
  6  7  1  0  0  0
  7  8  1  0  0  0
  8 34  1  0  0  0
 34 35  1  0  0  0
 35 36  1  0  0  0
 36 37  1  0  0  0
 36 38  1  0  0  0
  3  9  1  0  0  0
  9 10  2  0  0  0
 10 11  1  0  0  0
 11 12  1  0  0  0
 11 13  2  0  0  0
 13 14  1  0  0  0
 14 15  2  0  0  0
 15 16  1  0  0  0
 16 17  2  0  0  0
 16  1  1  0  0  0
  8  3  1  0  0  0
 15  9  1  0  0  0
 27 18  1  0  0  0
 27 22  1  0  0  0
 30 33  1  0  0  0
M  END
> <minimizedAffinity>
-7.52157

> <CNNscore>
0.3589397371

> <CNNaffinity>
6.7206397057

> <CNN_VS>
2.4123046398

> <CNNaffinity_variance>
0.1154349819

$$$$



 38 42  0  0  0  0  0  0  0  0999 V2000
   10.3019    0.3159   23.6774 N   0  0  0  0  0  0  0  0  0  0  0  0
    8.8970   -0.1467   23.9273 C   0  0  0  0  0  0  0  0  0  0  0  0
    8.6426   -1.3207   24.8256 C   0  0  0  0  0  0  0  0  0  0  0  0
    8.2354   -2.4732   25.6950 C   0  0  0  0  0  0  0  0  0  0  0  0
    8.7327   -3.3267   26.4026 O   0  0  0  0  0  0  0  0  0  0  0  0
    6.7395   -2.5769   25.6567 N   0  0  0  0  0  0  0  0  0  0  0  0
    6.2221   -1.4884   24.7636 C   0  0  0  0  0  0  0  0  0  0  0  0
    7.3984   -0.7121   24.2500 C   0  0  0  0  0  0  0  0  0  0  0  0
    9.7931   -2.0321   25.4742 C   0  0  0  0  0  0  0  0  0  0  0  0
    9.5387   -3.2060   26.3725 C   0  0  0  0  0  0  0  0  0  0  0  0
   10.6891   -3.9173   27.0210 C   0  0  0  0  0  0  0  0  0  0  0  0
   10.4347   -5.0913   27.9194 F   0  0  0  0  0  0  0  0  0  0  0  0
   12.0939   -3.4546   26.7711 C   0  0  0  0  0  0  0  0  0  0  0  0
   12.3483   -2.2807   25.8728 C   0  0  0  0  0  0  0  0  0  0  0  0
   11.1979   -1.5694   25.2243 C   0  0  0  0  0  0  0  0  0  0  0  0
   11.4523   -0.3954   24.3259 C   0  0  0  0  0  0  0  0  0  0  0  0
   12.8571    0.0673   24.0760 O   0  0  0  0  0  0  0  0  0  0  0  0
    5.9070   -3.5910   26.3838 C   0  0  0  0  0  0  0  0  0  0  0  0
    5.4742   -4.8459   25.6853 C   0  0  0  0  0  0  0  0  0  0  0  0
    4.6417   -5.8600   26.4123 N   0  0  0  0  0  0  0  0  0  0  0  0
    4.2422   -5.6192   27.8379 C   0  0  0  0  0  0  0  0  0  0  0  0
    4.6751   -4.3643   28.5365 C   0  0  0  0  0  0  0  0  0  0  0  0
    4.2755   -4.1235   29.9621 C   0  0  0  0  0  0  0  0  0  0  0  0
    4.7084   -2.8686   30.6606 C   0  0  0  0  0  0  0  0  0  0  0  0
    5.5409   -1.8545   29.9335 C   0  0  0  0  0  0  0  0  0  0  0  0
    5.9404   -2.0953   28.5079 C   0  0  0  0  0  0  0  0  0  0  0  0
    5.5075   -3.3502   27.8094 C   0  0  0  0  0  0  0  0  0  0  0  0
   10.5562    1.4899   22.7790 C   0  0  0  0  0  0  0  0  0  0  0  0
    8.0181    4.4981   23.2879 C   0  0  0  0  0  0  0  0  0  0  0  0
    9.1113    3.5057   23.5528 N   0  0  0  0  0  0  0  0  0  0  0  0
    9.4631    2.4823   22.5141 C   0  0  0  0  0  0  0  0  0  0  0  0
    8.7217    2.4513   21.2105 O   0  0  0  0  0  0  0  0  0  0  0  0
    9.5979    3.5261   24.4084 H   0  0  0  0  0  0  0  0  0  0  0  0
    7.3405    0.4661   23.3234 C   0  0  0  0  0  0  0  0  0  0  0  0
    6.2932    0.5264   22.2514 O   0  0  0  0  0  0  0  0  0  0  0  0
    6.2996   -0.4799   21.1390 C   0  0  0  0  0  0  0  0  0  0  0  0
    7.2058   -0.2880   19.9593 C   0  0  0  0  0  0  0  0  0  0  0  0
    5.3997   -1.6781   21.2065 C   0  0  0  0  0  0  0  0  0  0  0  0
 29 30  1  0  0  0
 30 31  1  0  0  0
 31 32  2  0  0  0
 31 28  1  0  0  0
 28  1  1  0  0  0
  1  2  1  0  0  0
  3  2  1  0  0  0
  3  4  1  0  0  0
  4  5  2  0  0  0
  4  6  1  0  0  0
  6 18  1  0  0  0
 18 19  2  0  0  0
 19 20  1  0  0  0
 20 21  2  0  0  0
 21 22  1  0  0  0
 22 23  2  0  0  0
 23 24  1  0  0  0
 24 25  2  0  0  0
 25 26  1  0  0  0
 26 27  2  0  0  0
  6  7  1  0  0  0
  7  8  1  0  0  0
  8 34  1  0  0  0
 34 35  1  0  0  0
 35 36  1  0  0  0
 36 37  1  0  0  0
 36 38  1  0  0  0
  3  9  1  0  0  0
  9 10  2  0  0  0
 10 11  1  0  0  0
 11 12  1  0  0  0
 11 13  2  0  0  0
 13 14  1  0  0  0
 14 15  2  0  0  0
 15 16  1  0  0  0
 16 17  2  0  0  0
 16  1  1  0  0  0
  8  3  1  0  0  0
 15  9  1  0  0  0
 27 18  1  0  0  0
 27 22  1  0  0  0
 30 33  1  0  0  0
M  END
> <minimizedAffinity>
-7.85034

> <CNNscore>
0.3550030291

> <CNNaffinity>
6.4116783142

> <CNN_VS>
2.2761652470

> <CNNaffinity_variance>
0.2009018362

$$$$



 38 42  0  0  0  0  0  0  0  0999 V2000
    8.6208   -2.4537   25.2320 N   0  0  0  0  0  0  0  0  0  0  0  0
    7.5534   -2.5148   24.1800 C   0  0  0  0  0  0  0  0  0  0  0  0
    7.4783   -1.4513   23.1249 C   0  0  0  0  0  0  0  0  0  0  0  0
    7.2794   -0.4651   22.0123 C   0  0  0  0  0  0  0  0  0  0  0  0
    7.7677    0.5592   21.5781 O   0  0  0  0  0  0  0  0  0  0  0  0
    6.1005   -0.9137   21.2006 N   0  0  0  0  0  0  0  0  0  0  0  0
    5.5708   -2.1771   21.8115 C   0  0  0  0  0  0  0  0  0  0  0  0
    6.4224   -2.5094   23.0008 C   0  0  0  0  0  0  0  0  0  0  0  0
    8.4708   -0.3265   23.1219 C   0  0  0  0  0  0  0  0  0  0  0  0
    8.3958    0.7370   22.0668 C   0  0  0  0  0  0  0  0  0  0  0  0
    9.3882    1.8617   22.0638 C   0  0  0  0  0  0  0  0  0  0  0  0
    9.3132    2.9254   21.0087 F   0  0  0  0  0  0  0  0  0  0  0  0
   10.4557    1.9229   23.1158 C   0  0  0  0  0  0  0  0  0  0  0  0
   10.5307    0.8594   24.1709 C   0  0  0  0  0  0  0  0  0  0  0  0
    9.5383   -0.2653   24.1739 C   0  0  0  0  0  0  0  0  0  0  0  0
    9.6133   -1.3290   25.2290 C   0  0  0  0  0  0  0  0  0  0  0  0
   10.6807   -1.2678   26.2810 O   0  0  0  0  0  0  0  0  0  0  0  0
    5.5482   -0.2206   19.9904 C   0  0  0  0  0  0  0  0  0  0  0  0
    6.0560   -0.5773   18.6247 C   0  0  0  0  0  0  0  0  0  0  0  0
    5.5038    0.1159   17.4145 N   0  0  0  0  0  0  0  0  0  0  0  0
    4.4438    1.1657   17.5700 C   0  0  0  0  0  0  0  0  0  0  0  0
    3.9360    1.5224   18.9356 C   0  0  0  0  0  0  0  0  0  0  0  0
    2.8760    2.5724   19.0911 C   0  0  0  0  0  0  0  0  0  0  0  0
    2.3683    2.9290   20.4568 C   0  0  0  0  0  0  0  0  0  0  0  0
    2.9205    2.2358   21.6670 C   0  0  0  0  0  0  0  0  0  0  0  0
    3.9805    1.1860   21.5115 C   0  0  0  0  0  0  0  0  0  0  0  0
    4.4883    0.8293   20.1458 C   0  0  0  0  0  0  0  0  0  0  0  0
    8.6958   -3.5173   26.2871 C   0  0  0  0  0  0  0  0  0  0  0  0
   12.5559   -4.4104   26.5153 C   0  0  0  0  0  0  0  0  0  0  0  0
   11.2259   -4.0041   25.9531 N   0  0  0  0  0  0  0  0  0  0  0  0
   10.0258   -3.9235   26.8493 C   0  0  0  0  0  0  0  0  0  0  0  0
   10.1557   -4.2492   28.3078 O   0  0  0  0  0  0  0  0  0  0  0  0
   11.1406   -3.7904   24.9959 H   0  0  0  0  0  0  0  0  0  0  0  0
    6.2485   -3.6921   23.9069 C   0  0  0  0  0  0  0  0  0  0  0  0
    5.4667   -4.8847   23.4418 O   0  0  0  0  0  0  0  0  0  0  0  0
    6.1600   -5.9995   22.7162 C   0  0  0  0  0  0  0  0  0  0  0  0
    5.8539   -6.2583   21.2708 C   0  0  0  0  0  0  0  0  0  0  0  0
    7.1595   -6.8556   23.4361 C   0  0  0  0  0  0  0  0  0  0  0  0
 29 30  1  0  0  0
 30 31  1  0  0  0
 31 32  2  0  0  0
 31 28  1  0  0  0
 28  1  1  0  0  0
  1  2  1  0  0  0
  3  2  1  0  0  0
  3  4  1  0  0  0
  4  5  2  0  0  0
  4  6  1  0  0  0
  6 18  1  0  0  0
 18 19  2  0  0  0
 19 20  1  0  0  0
 20 21  2  0  0  0
 21 22  1  0  0  0
 22 23  2  0  0  0
 23 24  1  0  0  0
 24 25  2  0  0  0
 25 26  1  0  0  0
 26 27  2  0  0  0
  6  7  1  0  0  0
  7  8  1  0  0  0
  8 34  1  0  0  0
 34 35  1  0  0  0
 35 36  1  0  0  0
 36 37  1  0  0  0
 36 38  1  0  0  0
  3  9  1  0  0  0
  9 10  2  0  0  0
 10 11  1  0  0  0
 11 12  1  0  0  0
 11 13  2  0  0  0
 13 14  1  0  0  0
 14 15  2  0  0  0
 15 16  1  0  0  0
 16 17  2  0  0  0
 16  1  1  0  0  0
  8  3  1  0  0  0
 15  9  1  0  0  0
 27 18  1  0  0  0
 27 22  1  0  0  0
 30 33  1  0  0  0
M  END
> <minimizedAffinity>
-7.39645

> <CNNscore>
0.3261437416

> <CNNaffinity>
6.4684219360

> <CNN_VS>
2.1096353531

> <CNNaffinity_variance>
0.1032853946

$$$$



 38 42  0  0  0  0  0  0  0  0999 V2000
   10.4179    0.3672   23.7601 N   0  0  0  0  0  0  0  0  0  0  0  0
    9.0186   -0.0093   24.1477 C   0  0  0  0  0  0  0  0  0  0  0  0
    8.7808   -1.1807   25.0538 C   0  0  0  0  0  0  0  0  0  0  0  0
    8.3897   -2.3205   25.9470 C   0  0  0  0  0  0  0  0  0  0  0  0
    8.8997   -3.2167   26.5898 O   0  0  0  0  0  0  0  0  0  0  0  0
    6.8941   -2.3278   26.0615 N   0  0  0  0  0  0  0  0  0  0  0  0
    6.3608   -1.1924   25.2390 C   0  0  0  0  0  0  0  0  0  0  0  0
    7.5269   -0.4835   24.6162 C   0  0  0  0  0  0  0  0  0  0  0  0
    9.9423   -1.9758   25.5723 C   0  0  0  0  0  0  0  0  0  0  0  0
    9.7045   -3.1473   26.4785 C   0  0  0  0  0  0  0  0  0  0  0  0
   10.8660   -3.9422   26.9970 C   0  0  0  0  0  0  0  0  0  0  0  0
   10.6282   -5.1138   27.9031 F   0  0  0  0  0  0  0  0  0  0  0  0
   12.2653   -3.5658   26.6094 C   0  0  0  0  0  0  0  0  0  0  0  0
   12.5031   -2.3943   25.7033 C   0  0  0  0  0  0  0  0  0  0  0  0
   11.3416   -1.5993   25.1847 C   0  0  0  0  0  0  0  0  0  0  0  0
   11.5794   -0.4278   24.2786 C   0  0  0  0  0  0  0  0  0  0  0  0
   12.9787   -0.0513   23.8910 O   0  0  0  0  0  0  0  0  0  0  0  0
    6.0756   -3.2997   26.8586 C   0  0  0  0  0  0  0  0  0  0  0  0
    5.9001   -3.0989   28.3347 C   0  0  0  0  0  0  0  0  0  0  0  0
    5.0816   -4.0709   29.1318 N   0  0  0  0  0  0  0  0  0  0  0  0
    4.4385   -5.2435   28.4527 C   0  0  0  0  0  0  0  0  0  0  0  0
    4.6139   -5.4443   26.9766 C   0  0  0  0  0  0  0  0  0  0  0  0
    3.9707   -6.6170   26.2975 C   0  0  0  0  0  0  0  0  0  0  0  0
    4.1462   -6.8177   24.8213 C   0  0  0  0  0  0  0  0  0  0  0  0
    4.9647   -5.8458   24.0243 C   0  0  0  0  0  0  0  0  0  0  0  0
    5.6078   -4.6731   24.7034 C   0  0  0  0  0  0  0  0  0  0  0  0
    5.4324   -4.4724   26.1795 C   0  0  0  0  0  0  0  0  0  0  0  0
   10.6557    1.5387   22.8539 C   0  0  0  0  0  0  0  0  0  0  0  0
    8.1009    4.5593   23.1683 C   0  0  0  0  0  0  0  0  0  0  0  0
    9.2220    3.6128   23.4803 N   0  0  0  0  0  0  0  0  0  0  0  0
    9.5346    2.4852   22.5419 C   0  0  0  0  0  0  0  0  0  0  0  0
    8.7262    2.3040   21.2914 O   0  0  0  0  0  0  0  0  0  0  0  0
    9.7526    3.7317   24.3010 H   0  0  0  0  0  0  0  0  0  0  0  0
    7.4520    0.7126   23.7141 C   0  0  0  0  0  0  0  0  0  0  0  0
    6.1722    1.4861   23.5988 O   0  0  0  0  0  0  0  0  0  0  0  0
    5.4348    1.5259   22.2931 C   0  0  0  0  0  0  0  0  0  0  0  0
    4.9141    2.8298   21.7652 C   0  0  0  0  0  0  0  0  0  0  0  0
    5.2182    0.2617   21.5153 C   0  0  0  0  0  0  0  0  0  0  0  0
 29 30  1  0  0  0
 30 31  1  0  0  0
 31 32  2  0  0  0
 31 28  1  0  0  0
 28  1  1  0  0  0
  1  2  1  0  0  0
  3  2  1  0  0  0
  3  4  1  0  0  0
  4  5  2  0  0  0
  4  6  1  0  0  0
  6 18  1  0  0  0
 18 19  2  0  0  0
 19 20  1  0  0  0
 20 21  2  0  0  0
 21 22  1  0  0  0
 22 23  2  0  0  0
 23 24  1  0  0  0
 24 25  2  0  0  0
 25 26  1  0  0  0
 26 27  2  0  0  0
  6  7  1  0  0  0
  7  8  1  0  0  0
  8 34  1  0  0  0
 34 35  1  0  0  0
 35 36  1  0  0  0
 36 37  1  0  0  0
 36 38  1  0  0  0
  3  9  1  0  0  0
  9 10  2  0  0  0
 10 11  1  0  0  0
 11 12  1  0  0  0
 11 13  2  0  0  0
 13 14  1  0  0  0
 14 15  2  0  0  0
 15 16  1  0  0  0
 16 17  2  0  0  0
 16  1  1  0  0  0
  8  3  1  0  0  0
 15  9  1  0  0  0
 27 18  1  0  0  0
 27 22  1  0  0  0
 30 33  1  0  0  0
M  END
> <minimizedAffinity>
-7.92105

> <CNNscore>
0.2808072865

> <CNNaffinity>
6.4136276245

> <CNN_VS>
1.8009933233

> <CNNaffinity_variance>
0.2001818717

$$$$



 38 42  0  0  0  0  0  0  0  0999 V2000
   10.8845    1.5997   22.7181 N   0  0  0  0  0  0  0  0  0  0  0  0
    9.4757    1.2310   23.0778 C   0  0  0  0  0  0  0  0  0  0  0  0
    9.2131    0.0558   23.9721 C   0  0  0  0  0  0  0  0  0  0  0  0
    8.7978   -1.0865   24.8510 C   0  0  0  0  0  0  0  0  0  0  0  0
    9.2895   -1.9902   25.4975 O   0  0  0  0  0  0  0  0  0  0  0  0
    7.3003   -1.0837   24.9382 N   0  0  0  0  0  0  0  0  0  0  0  0
    6.7901    0.0604   24.1131 C   0  0  0  0  0  0  0  0  0  0  0  0
    7.9723    0.7646   23.5161 C   0  0  0  0  0  0  0  0  0  0  0  0
   10.3593   -0.7507   24.5069 C   0  0  0  0  0  0  0  0  0  0  0  0
   10.0967   -1.9259   25.4012 C   0  0  0  0  0  0  0  0  0  0  0  0
   11.2429   -2.7323   25.9359 C   0  0  0  0  0  0  0  0  0  0  0  0
   10.9803   -3.9076   26.8303 F   0  0  0  0  0  0  0  0  0  0  0  0
   12.6517   -2.3636   25.5762 C   0  0  0  0  0  0  0  0  0  0  0  0
   12.9143   -1.1884   24.6818 C   0  0  0  0  0  0  0  0  0  0  0  0
   11.7681   -0.3819   24.1472 C   0  0  0  0  0  0  0  0  0  0  0  0
   12.0307    0.7933   23.2527 C   0  0  0  0  0  0  0  0  0  0  0  0
   13.4394    1.1621   22.8930 O   0  0  0  0  0  0  0  0  0  0  0  0
    6.4605   -2.0545   25.7142 C   0  0  0  0  0  0  0  0  0  0  0  0
    6.2161   -3.4329   25.1752 C   0  0  0  0  0  0  0  0  0  0  0  0
    5.3763   -4.4037   25.9511 N   0  0  0  0  0  0  0  0  0  0  0  0
    4.7808   -3.9962   27.2661 C   0  0  0  0  0  0  0  0  0  0  0  0
    5.0251   -2.6179   27.8052 C   0  0  0  0  0  0  0  0  0  0  0  0
    4.4295   -2.2104   29.1202 C   0  0  0  0  0  0  0  0  0  0  0  0
    4.6739   -0.8320   29.6592 C   0  0  0  0  0  0  0  0  0  0  0  0
    5.5137    0.1388   28.8832 C   0  0  0  0  0  0  0  0  0  0  0  0
    6.1092   -0.2687   27.5682 C   0  0  0  0  0  0  0  0  0  0  0  0
    5.8649   -1.6470   27.0292 C   0  0  0  0  0  0  0  0  0  0  0  0
   11.1471    2.7750   21.8236 C   0  0  0  0  0  0  0  0  0  0  0  0
   10.8168    6.4072   23.3882 C   0  0  0  0  0  0  0  0  0  0  0  0
   10.4459    5.0807   22.7941 N   0  0  0  0  0  0  0  0  0  0  0  0
   11.5179    4.1015   22.4177 C   0  0  0  0  0  0  0  0  0  0  0  0
   12.9609    4.4487   22.6353 O   0  0  0  0  0  0  0  0  0  0  0  0
    9.4989    4.8529   22.6513 H   0  0  0  0  0  0  0  0  0  0  0  0
    7.9225    1.9667   22.6202 C   0  0  0  0  0  0  0  0  0  0  0  0
    7.7368    1.7933   21.1420 O   0  0  0  0  0  0  0  0  0  0  0  0
    6.5277    1.0776   20.6167 C   0  0  0  0  0  0  0  0  0  0  0  0
    5.1553    1.5256   21.0239 C   0  0  0  0  0  0  0  0  0  0  0  0
    6.6910   -0.0859   19.6843 C   0  0  0  0  0  0  0  0  0  0  0  0
 29 30  1  0  0  0
 30 31  1  0  0  0
 31 32  2  0  0  0
 31 28  1  0  0  0
 28  1  1  0  0  0
  1  2  1  0  0  0
  3  2  1  0  0  0
  3  4  1  0  0  0
  4  5  2  0  0  0
  4  6  1  0  0  0
  6 18  1  0  0  0
 18 19  2  0  0  0
 19 20  1  0  0  0
 20 21  2  0  0  0
 21 22  1  0  0  0
 22 23  2  0  0  0
 23 24  1  0  0  0
 24 25  2  0  0  0
 25 26  1  0  0  0
 26 27  2  0  0  0
  6  7  1  0  0  0
  7  8  1  0  0  0
  8 34  1  0  0  0
 34 35  1  0  0  0
 35 36  1  0  0  0
 36 37  1  0  0  0
 36 38  1  0  0  0
  3  9  1  0  0  0
  9 10  2  0  0  0
 10 11  1  0  0  0
 11 12  1  0  0  0
 11 13  2  0  0  0
 13 14  1  0  0  0
 14 15  2  0  0  0
 15 16  1  0  0  0
 16 17  2  0  0  0
 16  1  1  0  0  0
  8  3  1  0  0  0
 15  9  1  0  0  0
 27 18  1  0  0  0
 27 22  1  0  0  0
 30 33  1  0  0  0
M  END
> <minimizedAffinity>
-7.73005

> <CNNscore>
0.2741860747

> <CNNaffinity>
6.6536741257

> <CNN_VS>
1.8243447542

> <CNNaffinity_variance>
0.1261643022

$$$$



 38 42  0  0  0  0  0  0  0  0999 V2000
    5.7047    3.6456   22.7636 N   0  0  0  0  0  0  0  0  0  0  0  0
    6.5225    2.3926   22.6582 C   0  0  0  0  0  0  0  0  0  0  0  0
    6.9162    1.6473   23.8989 C   0  0  0  0  0  0  0  0  0  0  0  0
    7.3827    0.7999   25.0453 C   0  0  0  0  0  0  0  0  0  0  0  0
    7.3223    0.7598   26.2582 O   0  0  0  0  0  0  0  0  0  0  0  0
    8.1659   -0.3495   24.4835 N   0  0  0  0  0  0  0  0  0  0  0  0
    8.1835   -0.2124   22.9899 C   0  0  0  0  0  0  0  0  0  0  0  0
    7.4111    1.0217   22.6286 C   0  0  0  0  0  0  0  0  0  0  0  0
    6.4921    2.1551   25.2452 C   0  0  0  0  0  0  0  0  0  0  0  0
    6.8858    1.4098   26.4860 C   0  0  0  0  0  0  0  0  0  0  0  0
    6.4617    1.9176   27.8322 C   0  0  0  0  0  0  0  0  0  0  0  0
    6.8554    1.1724   29.0730 F   0  0  0  0  0  0  0  0  0  0  0  0
    5.6439    3.1707   27.9376 C   0  0  0  0  0  0  0  0  0  0  0  0
    5.2502    3.9159   26.6968 C   0  0  0  0  0  0  0  0  0  0  0  0
    5.6743    3.4081   25.3506 C   0  0  0  0  0  0  0  0  0  0  0  0
    5.2806    4.1534   24.1097 C   0  0  0  0  0  0  0  0  0  0  0  0
    4.4628    5.4064   24.2151 O   0  0  0  0  0  0  0  0  0  0  0  0
    8.8172   -1.4438   25.2762 C   0  0  0  0  0  0  0  0  0  0  0  0
    7.9734   -2.4198   26.0413 C   0  0  0  0  0  0  0  0  0  0  0  0
    8.6247   -3.5141   26.8340 N   0  0  0  0  0  0  0  0  0  0  0  0
   10.1197   -3.6324   26.8616 C   0  0  0  0  0  0  0  0  0  0  0  0
   10.9635   -2.6563   26.0965 C   0  0  0  0  0  0  0  0  0  0  0  0
   12.4587   -2.7746   26.1240 C   0  0  0  0  0  0  0  0  0  0  0  0
   13.3024   -1.7985   25.3589 C   0  0  0  0  0  0  0  0  0  0  0  0
   12.6511   -0.7042   24.5662 C   0  0  0  0  0  0  0  0  0  0  0  0
   11.1560   -0.5860   24.5387 C   0  0  0  0  0  0  0  0  0  0  0  0
   10.3123   -1.5620   25.3038 C   0  0  0  0  0  0  0  0  0  0  0  0
    5.3110    4.3909   21.5227 C   0  0  0  0  0  0  0  0  0  0  0  0
    2.5331    2.6674   19.2726 C   0  0  0  0  0  0  0  0  0  0  0  0
    3.8524    2.9477   19.9291 N   0  0  0  0  0  0  0  0  0  0  0  0
    3.9917    4.1105   20.8663 C   0  0  0  0  0  0  0  0  0  0  0  0
    2.8117    4.9931   21.1471 O   0  0  0  0  0  0  0  0  0  0  0  0
    4.6269    2.3685   19.7447 H   0  0  0  0  0  0  0  0  0  0  0  0
    7.1751    1.5393   21.2407 C   0  0  0  0  0  0  0  0  0  0  0  0
    7.2961    0.6157   20.0651 O   0  0  0  0  0  0  0  0  0  0  0  0
    6.0826   -0.0917   19.5389 C   0  0  0  0  0  0  0  0  0  0  0  0
    5.5157    0.2847   18.2021 C   0  0  0  0  0  0  0  0  0  0  0  0
    5.4358   -1.1755   20.3495 C   0  0  0  0  0  0  0  0  0  0  0  0
 29 30  1  0  0  0
 30 31  1  0  0  0
 31 32  2  0  0  0
 31 28  1  0  0  0
 28  1  1  0  0  0
  1  2  1  0  0  0
  3  2  1  0  0  0
  3  4  1  0  0  0
  4  5  2  0  0  0
  4  6  1  0  0  0
  6 18  1  0  0  0
 18 19  2  0  0  0
 19 20  1  0  0  0
 20 21  2  0  0  0
 21 22  1  0  0  0
 22 23  2  0  0  0
 23 24  1  0  0  0
 24 25  2  0  0  0
 25 26  1  0  0  0
 26 27  2  0  0  0
  6  7  1  0  0  0
  7  8  1  0  0  0
  8 34  1  0  0  0
 34 35  1  0  0  0
 35 36  1  0  0  0
 36 37  1  0  0  0
 36 38  1  0  0  0
  3  9  1  0  0  0
  9 10  2  0  0  0
 10 11  1  0  0  0
 11 12  1  0  0  0
 11 13  2  0  0  0
 13 14  1  0  0  0
 14 15  2  0  0  0
 15 16  1  0  0  0
 16 17  2  0  0  0
 16  1  1  0  0  0
  8  3  1  0  0  0
 15  9  1  0  0  0
 27 18  1  0  0  0
 27 22  1  0  0  0
 30 33  1  0  0  0
M  END
> <minimizedAffinity>
-7.66300

> <CNNscore>
0.2516113222

> <CNNaffinity>
5.9903869629

> <CNN_VS>
1.5072492361

> <CNNaffinity_variance>
0.1530541033

$$$$



 38 42  0  0  0  0  0  0  0  0999 V2000
    6.0515    3.2474   22.7024 N   0  0  0  0  0  0  0  0  0  0  0  0
    7.2122    2.2981   22.7426 C   0  0  0  0  0  0  0  0  0  0  0  0
    7.0909    0.9958   23.4769 C   0  0  0  0  0  0  0  0  0  0  0  0
    7.1176   -0.3354   24.1677 C   0  0  0  0  0  0  0  0  0  0  0  0
    6.3974   -1.0541   24.8318 O   0  0  0  0  0  0  0  0  0  0  0  0
    8.4719   -0.9429   23.9511 N   0  0  0  0  0  0  0  0  0  0  0  0
    9.2822    0.0129   23.1265 C   0  0  0  0  0  0  0  0  0  0  0  0
    8.4286    1.2110   22.8334 C   0  0  0  0  0  0  0  0  0  0  0  0
    5.8088    0.6427   24.1710 C   0  0  0  0  0  0  0  0  0  0  0  0
    5.6875   -0.6596   24.9053 C   0  0  0  0  0  0  0  0  0  0  0  0
    4.4054   -1.0126   25.5993 C   0  0  0  0  0  0  0  0  0  0  0  0
    4.2841   -2.3150   26.3336 F   0  0  0  0  0  0  0  0  0  0  0  0
    3.2447   -0.0633   25.5591 C   0  0  0  0  0  0  0  0  0  0  0  0
    3.3661    1.2390   24.8248 C   0  0  0  0  0  0  0  0  0  0  0  0
    4.6481    1.5920   24.1308 C   0  0  0  0  0  0  0  0  0  0  0  0
    4.7695    2.8944   23.3964 C   0  0  0  0  0  0  0  0  0  0  0  0
    3.6088    3.8437   23.3562 O   0  0  0  0  0  0  0  0  0  0  0  0
    8.9347   -2.2726   24.4684 C   0  0  0  0  0  0  0  0  0  0  0  0
    8.0613   -3.4825   24.3145 C   0  0  0  0  0  0  0  0  0  0  0  0
    8.5241   -4.8122   24.8318 N   0  0  0  0  0  0  0  0  0  0  0  0
    9.8601   -4.9322   25.5030 C   0  0  0  0  0  0  0  0  0  0  0  0
   10.7335   -3.7223   25.6569 C   0  0  0  0  0  0  0  0  0  0  0  0
   12.0696   -3.8423   26.3281 C   0  0  0  0  0  0  0  0  0  0  0  0
   12.9428   -2.6324   26.4820 C   0  0  0  0  0  0  0  0  0  0  0  0
   12.4801   -1.3027   25.9647 C   0  0  0  0  0  0  0  0  0  0  0  0
   11.1440   -1.1827   25.2935 C   0  0  0  0  0  0  0  0  0  0  0  0
   10.2707   -2.3926   25.1396 C   0  0  0  0  0  0  0  0  0  0  0  0
    6.1729    4.5498   21.9681 C   0  0  0  0  0  0  0  0  0  0  0  0
    8.9097    7.1369   23.2198 C   0  0  0  0  0  0  0  0  0  0  0  0
    8.2818    5.9523   22.5471 N   0  0  0  0  0  0  0  0  0  0  0  0
    6.8007    5.7344   22.6408 C   0  0  0  0  0  0  0  0  0  0  0  0
    5.9474    6.7012   23.4072 O   0  0  0  0  0  0  0  0  0  0  0  0
    8.8419    5.3178   22.0441 H   0  0  0  0  0  0  0  0  0  0  0  0
    8.8406    2.4133   22.0367 C   0  0  0  0  0  0  0  0  0  0  0  0
    9.7478    3.4413   22.6449 O   0  0  0  0  0  0  0  0  0  0  0  0
   11.2273    3.3701   22.4081 C   0  0  0  0  0  0  0  0  0  0  0  0
   11.9958    2.1514   22.8254 C   0  0  0  0  0  0  0  0  0  0  0  0
   11.9383    4.5176   21.7541 C   0  0  0  0  0  0  0  0  0  0  0  0
 29 30  1  0  0  0
 30 31  1  0  0  0
 31 32  2  0  0  0
 31 28  1  0  0  0
 28  1  1  0  0  0
  1  2  1  0  0  0
  3  2  1  0  0  0
  3  4  1  0  0  0
  4  5  2  0  0  0
  4  6  1  0  0  0
  6 18  1  0  0  0
 18 19  2  0  0  0
 19 20  1  0  0  0
 20 21  2  0  0  0
 21 22  1  0  0  0
 22 23  2  0  0  0
 23 24  1  0  0  0
 24 25  2  0  0  0
 25 26  1  0  0  0
 26 27  2  0  0  0
  6  7  1  0  0  0
  7  8  1  0  0  0
  8 34  1  0  0  0
 34 35  1  0  0  0
 35 36  1  0  0  0
 36 37  1  0  0  0
 36 38  1  0  0  0
  3  9  1  0  0  0
  9 10  2  0  0  0
 10 11  1  0  0  0
 11 12  1  0  0  0
 11 13  2  0  0  0
 13 14  1  0  0  0
 14 15  2  0  0  0
 15 16  1  0  0  0
 16 17  2  0  0  0
 16  1  1  0  0  0
  8  3  1  0  0  0
 15  9  1  0  0  0
 27 18  1  0  0  0
 27 22  1  0  0  0
 30 33  1  0  0  0
M  END
> <minimizedAffinity>
-6.98907

> <CNNscore>
0.2450944036

> <CNNaffinity>
6.4175276756

> <CNN_VS>
1.5729001760

> <CNNaffinity_variance>
0.1961543262

$$$$



 38 42  0  0  0  0  0  0  0  0999 V2000
   10.2277    3.7403   23.2235 N   0  0  0  0  0  0  0  0  0  0  0  0
   10.1669    2.2465   23.1020 C   0  0  0  0  0  0  0  0  0  0  0  0
    8.8561    1.5685   22.8337 C   0  0  0  0  0  0  0  0  0  0  0  0
    7.6242    0.7548   22.5684 C   0  0  0  0  0  0  0  0  0  0  0  0
    6.4329    0.9035   22.3815 O   0  0  0  0  0  0  0  0  0  0  0  0
    8.0233   -0.6905   22.5270 N   0  0  0  0  0  0  0  0  0  0  0  0
    9.5019   -0.7701   22.7667 C   0  0  0  0  0  0  0  0  0  0  0  0
   10.0166    0.6260   22.9563 C   0  0  0  0  0  0  0  0  0  0  0  0
    7.6059    2.3844   22.6868 C   0  0  0  0  0  0  0  0  0  0  0  0
    6.2951    1.7064   22.4185 C   0  0  0  0  0  0  0  0  0  0  0  0
    5.0450    2.5223   22.2716 C   0  0  0  0  0  0  0  0  0  0  0  0
    3.7341    1.8443   22.0033 F   0  0  0  0  0  0  0  0  0  0  0  0
    5.1058    4.0161   22.3931 C   0  0  0  0  0  0  0  0  0  0  0  0
    6.4166    4.6941   22.6614 C   0  0  0  0  0  0  0  0  0  0  0  0
    7.6667    3.8782   22.8083 C   0  0  0  0  0  0  0  0  0  0  0  0
    8.9776    4.5562   23.0766 C   0  0  0  0  0  0  0  0  0  0  0  0
    9.0384    6.0500   23.1981 O   0  0  0  0  0  0  0  0  0  0  0  0
    7.1051   -1.8522   22.2878 C   0  0  0  0  0  0  0  0  0  0  0  0
    6.0053   -1.7426   21.2736 C   0  0  0  0  0  0  0  0  0  0  0  0
    5.0870   -2.9043   21.0345 N   0  0  0  0  0  0  0  0  0  0  0  0
    5.2686   -4.1757   21.8095 C   0  0  0  0  0  0  0  0  0  0  0  0
    6.3684   -4.2853   22.8236 C   0  0  0  0  0  0  0  0  0  0  0  0
    6.5499   -5.5568   23.5986 C   0  0  0  0  0  0  0  0  0  0  0  0
    7.6497   -5.6664   24.6127 C   0  0  0  0  0  0  0  0  0  0  0  0
    8.5679   -4.5046   24.8519 C   0  0  0  0  0  0  0  0  0  0  0  0
    8.3864   -3.2333   24.0769 C   0  0  0  0  0  0  0  0  0  0  0  0
    7.2866   -3.1236   23.0628 C   0  0  0  0  0  0  0  0  0  0  0  0
   11.5386    4.4183   23.4918 C   0  0  0  0  0  0  0  0  0  0  0  0
   12.3090    7.8258   21.6090 C   0  0  0  0  0  0  0  0  0  0  0  0
   11.7519    6.8502   22.6029 N   0  0  0  0  0  0  0  0  0  0  0  0
   12.0956    5.3939   22.4979 C   0  0  0  0  0  0  0  0  0  0  0  0
   12.9965    4.9132   21.3990 O   0  0  0  0  0  0  0  0  0  0  0  0
   11.1607    7.1657   23.3241 H   0  0  0  0  0  0  0  0  0  0  0  0
   11.4416    1.0119   23.2218 C   0  0  0  0  0  0  0  0  0  0  0  0
   12.2125    0.3298   24.3128 O   0  0  0  0  0  0  0  0  0  0  0  0
   12.9006   -0.9752   24.0419 C   0  0  0  0  0  0  0  0  0  0  0  0
   13.0719   -1.4541   22.6308 C   0  0  0  0  0  0  0  0  0  0  0  0
   13.4173   -1.8015   25.1822 C   0  0  0  0  0  0  0  0  0  0  0  0
 29 30  1  0  0  0
 30 31  1  0  0  0
 31 32  2  0  0  0
 31 28  1  0  0  0
 28  1  1  0  0  0
  1  2  1  0  0  0
  3  2  1  0  0  0
  3  4  1  0  0  0
  4  5  2  0  0  0
  4  6  1  0  0  0
  6 18  1  0  0  0
 18 19  2  0  0  0
 19 20  1  0  0  0
 20 21  2  0  0  0
 21 22  1  0  0  0
 22 23  2  0  0  0
 23 24  1  0  0  0
 24 25  2  0  0  0
 25 26  1  0  0  0
 26 27  2  0  0  0
  6  7  1  0  0  0
  7  8  1  0  0  0
  8 34  1  0  0  0
 34 35  1  0  0  0
 35 36  1  0  0  0
 36 37  1  0  0  0
 36 38  1  0  0  0
  3  9  1  0  0  0
  9 10  2  0  0  0
 10 11  1  0  0  0
 11 12  1  0  0  0
 11 13  2  0  0  0
 13 14  1  0  0  0
 14 15  2  0  0  0
 15 16  1  0  0  0
 16 17  2  0  0  0
 16  1  1  0  0  0
  8  3  1  0  0  0
 15  9  1  0  0  0
 27 18  1  0  0  0
 27 22  1  0  0  0
 30 33  1  0  0  0
M  END
> <minimizedAffinity>
-7.31174

> <CNNscore>
0.2415726036

> <CNNaffinity>
6.7678480148

> <CNN_VS>
1.6349266768

> <CNNaffinity_variance>
0.1383664161

$$$$
