


 23 25  0  0  0  0  0  0  0  0999 V2000
   -6.6262   -3.4890  -23.8382 O   0  0  0  0  0  0  0  0  0  0  0  0
   -6.7387   -2.6935  -22.5714 C   0  0  0  0  0  0  0  0  0  0  0  0
   -7.7953   -1.6368  -22.4406 N   0  0  0  0  0  0  0  0  0  0  0  0
   -7.8691   -1.1147  -21.6092 H   0  0  0  0  0  0  0  0  0  0  0  0
   -5.7947   -2.9548  -21.4354 C   0  0  0  0  0  0  0  0  0  0  0  0
   -5.5267   -1.8826  -20.4212 C   0  0  0  0  0  0  0  0  0  0  0  0
   -5.9877   -2.0581  -19.0046 C   0  0  0  0  0  0  0  0  0  0  0  0
   -5.7197   -0.9860  -17.9904 N   0  0  0  0  0  0  0  0  0  0  0  0
   -4.9907    0.2617  -18.3927 C   0  0  0  0  0  0  0  0  0  0  0  0
   -4.5297    0.4373  -19.8093 C   0  0  0  0  0  0  0  0  0  0  0  0
   -3.8007    1.6849  -20.2117 C   0  0  0  0  0  0  0  0  0  0  0  0
   -3.3397    1.8604  -21.6282 C   0  0  0  0  0  0  0  0  0  0  0  0
   -3.6077    0.7883  -22.6424 C   0  0  0  0  0  0  0  0  0  0  0  0
   -4.3367   -0.4594  -22.2401 C   0  0  0  0  0  0  0  0  0  0  0  0
   -4.7977   -0.6349  -20.8236 C   0  0  0  0  0  0  0  0  0  0  0  0
   -8.7393   -1.3756  -23.5767 C   0  0  0  0  0  0  0  0  0  0  0  0
  -10.2192   -1.3563  -23.3327 C   0  0  0  0  0  0  0  0  0  0  0  0
  -10.9098   -2.5825  -22.8133 C   0  0  0  0  0  0  0  0  0  0  0  0
  -12.3897   -2.5632  -22.5693 C   0  0  0  0  0  0  0  0  0  0  0  0
  -13.1790   -1.3177  -22.8447 C   0  0  0  0  0  0  0  0  0  0  0  0
  -12.4885   -0.0916  -23.3641 C   0  0  0  0  0  0  0  0  0  0  0  0
  -13.2779    1.1537  -23.6395 Cl  0  0  0  0  0  0  0  0  0  0  0  0
  -11.0086   -0.1109  -23.6081 C   0  0  0  0  0  0  0  0  0  0  0  0
  1  2  2  0  0  0
  2  5  1  0  0  0
  5  6  1  0  0  0
  6  7  2  0  0  0
  7  8  1  0  0  0
  8  9  2  0  0  0
  9 10  1  0  0  0
 10 11  2  0  0  0
 11 12  1  0  0  0
 12 13  2  0  0  0
 13 14  1  0  0  0
 14 15  2  0  0  0
  2  3  1  0  0  0
  3 16  1  0  0  0
 16 17  1  0  0  0
 17 18  2  0  0  0
 18 19  1  0  0  0
 19 20  2  0  0  0
 20 21  1  0  0  0
 21 22  1  0  0  0
 21 23  2  0  0  0
 15  6  1  0  0  0
 23 17  1  0  0  0
 15 10  1  0  0  0
  3  4  1  0  0  0
M  END
> <minimizedAffinity>
-6.91034

> <CNNscore>
0.7525510788

> <CNNaffinity>
5.1200304031

> <CNN_VS>
3.8530843258

> <CNNaffinity_variance>
0.2819662988

$$$$



 23 25  0  0  0  0  0  0  0  0999 V2000
   -8.9420    1.0965  -21.6203 O   0  0  0  0  0  0  0  0  0  0  0  0
   -8.1863    0.0570  -22.3941 C   0  0  0  0  0  0  0  0  0  0  0  0
   -8.2767    0.0233  -23.8910 N   0  0  0  0  0  0  0  0  0  0  0  0
   -7.7807   -0.6589  -24.3988 H   0  0  0  0  0  0  0  0  0  0  0  0
   -7.3404   -0.9487  -21.6709 C   0  0  0  0  0  0  0  0  0  0  0  0
   -6.5116   -0.5245  -20.4948 C   0  0  0  0  0  0  0  0  0  0  0  0
   -6.9614   -0.8543  -19.1024 C   0  0  0  0  0  0  0  0  0  0  0  0
   -6.1326   -0.4301  -17.9263 N   0  0  0  0  0  0  0  0  0  0  0  0
   -4.8541    0.3238  -18.1426 C   0  0  0  0  0  0  0  0  0  0  0  0
   -4.4042    0.6536  -19.5351 C   0  0  0  0  0  0  0  0  0  0  0  0
   -3.1257    1.4075  -19.7514 C   0  0  0  0  0  0  0  0  0  0  0  0
   -2.6759    1.7373  -21.1439 C   0  0  0  0  0  0  0  0  0  0  0  0
   -3.5047    1.3131  -22.3200 C   0  0  0  0  0  0  0  0  0  0  0  0
   -4.7832    0.5592  -22.1036 C   0  0  0  0  0  0  0  0  0  0  0  0
   -5.2330    0.2295  -20.7112 C   0  0  0  0  0  0  0  0  0  0  0  0
   -9.1226    1.0291  -24.6141 C   0  0  0  0  0  0  0  0  0  0  0  0
  -10.5315    1.2843  -24.1667 C   0  0  0  0  0  0  0  0  0  0  0  0
  -11.0081    2.6908  -23.9553 C   0  0  0  0  0  0  0  0  0  0  0  0
  -12.4169    2.9460  -23.5079 C   0  0  0  0  0  0  0  0  0  0  0  0
  -13.3491    1.7947  -23.2720 C   0  0  0  0  0  0  0  0  0  0  0  0
  -12.8724    0.3883  -23.4835 C   0  0  0  0  0  0  0  0  0  0  0  0
  -13.8046   -0.7630  -23.2477 Cl  0  0  0  0  0  0  0  0  0  0  0  0
  -11.4636    0.1331  -23.9309 C   0  0  0  0  0  0  0  0  0  0  0  0
  1  2  2  0  0  0
  2  5  1  0  0  0
  5  6  1  0  0  0
  6  7  2  0  0  0
  7  8  1  0  0  0
  8  9  2  0  0  0
  9 10  1  0  0  0
 10 11  2  0  0  0
 11 12  1  0  0  0
 12 13  2  0  0  0
 13 14  1  0  0  0
 14 15  2  0  0  0
  2  3  1  0  0  0
  3 16  1  0  0  0
 16 17  1  0  0  0
 17 18  2  0  0  0
 18 19  1  0  0  0
 19 20  2  0  0  0
 20 21  1  0  0  0
 21 22  1  0  0  0
 21 23  2  0  0  0
 15  6  1  0  0  0
 23 17  1  0  0  0
 15 10  1  0  0  0
  3  4  1  0  0  0
M  END
> <minimizedAffinity>
-6.87675

> <CNNscore>
0.7327426672

> <CNNaffinity>
5.1977872849

> <CNN_VS>
3.8086404800

> <CNNaffinity_variance>
0.2978692353

$$$$



 23 25  0  0  0  0  0  0  0  0999 V2000
  -10.0832   -3.5001  -26.2517 O   0  0  0  0  0  0  0  0  0  0  0  0
   -9.4206   -4.3066  -25.1743 C   0  0  0  0  0  0  0  0  0  0  0  0
   -8.9543   -3.6371  -23.9156 N   0  0  0  0  0  0  0  0  0  0  0  0
   -8.5195   -4.1664  -23.2085 H   0  0  0  0  0  0  0  0  0  0  0  0
   -9.2244   -5.7826  -25.3557 C   0  0  0  0  0  0  0  0  0  0  0  0
   -7.8647   -6.3235  -25.6852 C   0  0  0  0  0  0  0  0  0  0  0  0
   -7.4948   -6.6049  -27.1113 C   0  0  0  0  0  0  0  0  0  0  0  0
   -6.1351   -7.1459  -27.4408 N   0  0  0  0  0  0  0  0  0  0  0  0
   -5.1452   -7.4054  -26.3441 C   0  0  0  0  0  0  0  0  0  0  0  0
   -5.5151   -7.1240  -24.9178 C   0  0  0  0  0  0  0  0  0  0  0  0
   -4.5252   -7.3835  -23.8211 C   0  0  0  0  0  0  0  0  0  0  0  0
   -4.8951   -7.1021  -22.3950 C   0  0  0  0  0  0  0  0  0  0  0  0
   -6.2548   -6.5612  -22.0655 C   0  0  0  0  0  0  0  0  0  0  0  0
   -7.2447   -6.3017  -23.1622 C   0  0  0  0  0  0  0  0  0  0  0  0
   -6.8748   -6.5831  -24.5884 C   0  0  0  0  0  0  0  0  0  0  0  0
   -9.1506   -2.1610  -23.7343 C   0  0  0  0  0  0  0  0  0  0  0  0
  -10.5263   -1.6104  -23.5014 C   0  0  0  0  0  0  0  0  0  0  0  0
  -10.8556   -0.2101  -23.9268 C   0  0  0  0  0  0  0  0  0  0  0  0
  -12.2313    0.3405  -23.6940 C   0  0  0  0  0  0  0  0  0  0  0  0
  -13.2777   -0.5091  -23.0358 C   0  0  0  0  0  0  0  0  0  0  0  0
  -12.9484   -1.9093  -22.6104 C   0  0  0  0  0  0  0  0  0  0  0  0
  -13.9948   -2.7589  -21.9523 Cl  0  0  0  0  0  0  0  0  0  0  0  0
  -11.5727   -2.4600  -22.8433 C   0  0  0  0  0  0  0  0  0  0  0  0
  1  2  2  0  0  0
  2  5  1  0  0  0
  5  6  1  0  0  0
  6  7  2  0  0  0
  7  8  1  0  0  0
  8  9  2  0  0  0
  9 10  1  0  0  0
 10 11  2  0  0  0
 11 12  1  0  0  0
 12 13  2  0  0  0
 13 14  1  0  0  0
 14 15  2  0  0  0
  2  3  1  0  0  0
  3 16  1  0  0  0
 16 17  1  0  0  0
 17 18  2  0  0  0
 18 19  1  0  0  0
 19 20  2  0  0  0
 20 21  1  0  0  0
 21 22  1  0  0  0
 21 23  2  0  0  0
 15  6  1  0  0  0
 23 17  1  0  0  0
 15 10  1  0  0  0
  3  4  1  0  0  0
M  END
> <minimizedAffinity>
-6.25475

> <CNNscore>
0.6352233291

> <CNNaffinity>
5.1078376770

> <CNN_VS>
3.2446177006

> <CNNaffinity_variance>
0.2501198351

$$$$



 23 25  0  0  0  0  0  0  0  0999 V2000
   -5.3493   -4.1264  -20.9827 O   0  0  0  0  0  0  0  0  0  0  0  0
   -6.3256   -3.4191  -21.8753 C   0  0  0  0  0  0  0  0  0  0  0  0
   -7.2146   -4.2091  -22.7893 N   0  0  0  0  0  0  0  0  0  0  0  0
   -7.8554   -3.7449  -23.3751 H   0  0  0  0  0  0  0  0  0  0  0  0
   -6.4127   -1.9218  -21.8538 C   0  0  0  0  0  0  0  0  0  0  0  0
   -5.9676   -1.1619  -20.6395 C   0  0  0  0  0  0  0  0  0  0  0  0
   -6.6763   -1.3560  -19.3318 C   0  0  0  0  0  0  0  0  0  0  0  0
   -6.2312   -0.5962  -18.1175 N   0  0  0  0  0  0  0  0  0  0  0  0
   -5.0775    0.3578  -18.2109 C   0  0  0  0  0  0  0  0  0  0  0  0
   -4.3687    0.5519  -19.5186 C   0  0  0  0  0  0  0  0  0  0  0  0
   -3.2150    1.5059  -19.6120 C   0  0  0  0  0  0  0  0  0  0  0  0
   -2.5063    1.7000  -20.9197 C   0  0  0  0  0  0  0  0  0  0  0  0
   -2.9514    0.9401  -22.1340 C   0  0  0  0  0  0  0  0  0  0  0  0
   -4.1051   -0.0138  -22.0406 C   0  0  0  0  0  0  0  0  0  0  0  0
   -4.8138   -0.2079  -20.7329 C   0  0  0  0  0  0  0  0  0  0  0  0
   -7.1275   -5.7064  -22.8107 C   0  0  0  0  0  0  0  0  0  0  0  0
   -6.4241   -6.4007  -23.9391 C   0  0  0  0  0  0  0  0  0  0  0  0
   -5.2550   -7.2970  -23.6560 C   0  0  0  0  0  0  0  0  0  0  0  0
   -4.5517   -7.9912  -24.7844 C   0  0  0  0  0  0  0  0  0  0  0  0
   -5.0174   -7.7891  -26.1960 C   0  0  0  0  0  0  0  0  0  0  0  0
   -6.1863   -6.8928  -26.4790 C   0  0  0  0  0  0  0  0  0  0  0  0
   -6.6519   -6.6908  -27.8905 Cl  0  0  0  0  0  0  0  0  0  0  0  0
   -6.8897   -6.1986  -25.3506 C   0  0  0  0  0  0  0  0  0  0  0  0
  1  2  2  0  0  0
  2  5  1  0  0  0
  5  6  1  0  0  0
  6  7  2  0  0  0
  7  8  1  0  0  0
  8  9  2  0  0  0
  9 10  1  0  0  0
 10 11  2  0  0  0
 11 12  1  0  0  0
 12 13  2  0  0  0
 13 14  1  0  0  0
 14 15  2  0  0  0
  2  3  1  0  0  0
  3 16  1  0  0  0
 16 17  1  0  0  0
 17 18  2  0  0  0
 18 19  1  0  0  0
 19 20  2  0  0  0
 20 21  1  0  0  0
 21 22  1  0  0  0
 21 23  2  0  0  0
 15  6  1  0  0  0
 23 17  1  0  0  0
 15 10  1  0  0  0
  3  4  1  0  0  0
M  END
> <minimizedAffinity>
-6.95285

> <CNNscore>
0.6298975945

> <CNNaffinity>
4.9642243385

> <CNN_VS>
3.1269528866

> <CNNaffinity_variance>
0.1875932515

$$$$



 23 25  0  0  0  0  0  0  0  0999 V2000
   -8.2641    0.7285  -21.3522 O   0  0  0  0  0  0  0  0  0  0  0  0
   -8.2059   -0.1671  -22.5541 C   0  0  0  0  0  0  0  0  0  0  0  0
   -7.4251   -1.4467  -22.4989 N   0  0  0  0  0  0  0  0  0  0  0  0
   -7.3869   -2.0345  -23.2877 H   0  0  0  0  0  0  0  0  0  0  0  0
   -8.9284    0.2169  -23.8113 C   0  0  0  0  0  0  0  0  0  0  0  0
  -10.3539    0.6793  -23.7457 C   0  0  0  0  0  0  0  0  0  0  0  0
  -10.6960    2.1035  -24.0690 C   0  0  0  0  0  0  0  0  0  0  0  0
  -12.1215    2.5658  -24.0034 N   0  0  0  0  0  0  0  0  0  0  0  0
  -13.2048    1.6040  -23.6145 C   0  0  0  0  0  0  0  0  0  0  0  0
  -12.8626    0.1797  -23.2911 C   0  0  0  0  0  0  0  0  0  0  0  0
  -13.9459   -0.7821  -22.9022 C   0  0  0  0  0  0  0  0  0  0  0  0
  -13.6038   -2.2063  -22.5789 C   0  0  0  0  0  0  0  0  0  0  0  0
  -12.1783   -2.6687  -22.6445 C   0  0  0  0  0  0  0  0  0  0  0  0
  -11.0950   -1.7068  -23.0334 C   0  0  0  0  0  0  0  0  0  0  0  0
  -11.4372   -0.2826  -23.3567 C   0  0  0  0  0  0  0  0  0  0  0  0
   -6.7026   -1.8307  -21.2416 C   0  0  0  0  0  0  0  0  0  0  0  0
   -5.7148   -0.8848  -20.6256 C   0  0  0  0  0  0  0  0  0  0  0  0
   -5.8049   -0.5520  -19.1657 C   0  0  0  0  0  0  0  0  0  0  0  0
   -4.8171    0.3939  -18.5497 C   0  0  0  0  0  0  0  0  0  0  0  0
   -3.7391    1.0070  -19.3936 C   0  0  0  0  0  0  0  0  0  0  0  0
   -3.6489    0.6742  -20.8534 C   0  0  0  0  0  0  0  0  0  0  0  0
   -2.5710    1.2873  -21.6972 Cl  0  0  0  0  0  0  0  0  0  0  0  0
   -4.6368   -0.2717  -21.4694 C   0  0  0  0  0  0  0  0  0  0  0  0
  1  2  2  0  0  0
  2  5  1  0  0  0
  5  6  1  0  0  0
  6  7  2  0  0  0
  7  8  1  0  0  0
  8  9  2  0  0  0
  9 10  1  0  0  0
 10 11  2  0  0  0
 11 12  1  0  0  0
 12 13  2  0  0  0
 13 14  1  0  0  0
 14 15  2  0  0  0
  2  3  1  0  0  0
  3 16  1  0  0  0
 16 17  1  0  0  0
 17 18  2  0  0  0
 18 19  1  0  0  0
 19 20  2  0  0  0
 20 21  1  0  0  0
 21 22  1  0  0  0
 21 23  2  0  0  0
 15  6  1  0  0  0
 23 17  1  0  0  0
 15 10  1  0  0  0
  3  4  1  0  0  0
M  END
> <minimizedAffinity>
-6.68701

> <CNNscore>
0.6216759086

> <CNNaffinity>
4.8029031754

> <CNN_VS>
2.9858491421

> <CNNaffinity_variance>
0.1734454632

$$$$



 23 25  0  0  0  0  0  0  0  0999 V2000
   -5.5185   -3.6775  -21.2745 O   0  0  0  0  0  0  0  0  0  0  0  0
   -6.5636   -2.9265  -22.0450 C   0  0  0  0  0  0  0  0  0  0  0  0
   -7.3872   -3.6356  -23.0790 N   0  0  0  0  0  0  0  0  0  0  0  0
   -8.0732   -3.1427  -23.5847 H   0  0  0  0  0  0  0  0  0  0  0  0
   -6.7852   -1.4666  -21.7816 C   0  0  0  0  0  0  0  0  0  0  0  0
   -6.2026   -0.8288  -20.5553 C   0  0  0  0  0  0  0  0  0  0  0  0
   -6.8661   -1.0193  -19.2237 C   0  0  0  0  0  0  0  0  0  0  0  0
   -6.2836   -0.3815  -17.9973 N   0  0  0  0  0  0  0  0  0  0  0  0
   -5.0375    0.4467  -18.1027 C   0  0  0  0  0  0  0  0  0  0  0  0
   -4.3739    0.6373  -19.4344 C   0  0  0  0  0  0  0  0  0  0  0  0
   -3.1278    1.4655  -19.5398 C   0  0  0  0  0  0  0  0  0  0  0  0
   -2.4642    1.6560  -20.8714 C   0  0  0  0  0  0  0  0  0  0  0  0
   -3.0468    1.0183  -22.0978 C   0  0  0  0  0  0  0  0  0  0  0  0
   -4.2929    0.1900  -21.9924 C   0  0  0  0  0  0  0  0  0  0  0  0
   -4.9564   -0.0005  -20.6607 C   0  0  0  0  0  0  0  0  0  0  0  0
   -7.1656   -5.0956  -23.3423 C   0  0  0  0  0  0  0  0  0  0  0  0
   -7.4610   -5.6665  -24.6976 C   0  0  0  0  0  0  0  0  0  0  0  0
   -6.3472   -6.2150  -25.5394 C   0  0  0  0  0  0  0  0  0  0  0  0
   -6.6426   -6.7859  -26.8947 C   0  0  0  0  0  0  0  0  0  0  0  0
   -8.0518   -6.8083  -27.4082 C   0  0  0  0  0  0  0  0  0  0  0  0
   -9.1656   -6.2598  -26.5664 C   0  0  0  0  0  0  0  0  0  0  0  0
  -10.5747   -6.2822  -27.0799 Cl  0  0  0  0  0  0  0  0  0  0  0  0
   -8.8702   -5.6889  -25.2111 C   0  0  0  0  0  0  0  0  0  0  0  0
  1  2  2  0  0  0
  2  5  1  0  0  0
  5  6  1  0  0  0
  6  7  2  0  0  0
  7  8  1  0  0  0
  8  9  2  0  0  0
  9 10  1  0  0  0
 10 11  2  0  0  0
 11 12  1  0  0  0
 12 13  2  0  0  0
 13 14  1  0  0  0
 14 15  2  0  0  0
  2  3  1  0  0  0
  3 16  1  0  0  0
 16 17  1  0  0  0
 17 18  2  0  0  0
 18 19  1  0  0  0
 19 20  2  0  0  0
 20 21  1  0  0  0
 21 22  1  0  0  0
 21 23  2  0  0  0
 15  6  1  0  0  0
 23 17  1  0  0  0
 15 10  1  0  0  0
  3  4  1  0  0  0
M  END
> <minimizedAffinity>
-6.68909

> <CNNscore>
0.5815869570

> <CNNaffinity>
4.9323182106

> <CNN_VS>
2.8685719967

> <CNNaffinity_variance>
0.0411696322

$$$$



 23 25  0  0  0  0  0  0  0  0999 V2000
   -8.4146   -0.6012  -20.9679 O   0  0  0  0  0  0  0  0  0  0  0  0
   -8.0735   -1.4450  -22.1604 C   0  0  0  0  0  0  0  0  0  0  0  0
   -6.8488   -2.3109  -22.1408 N   0  0  0  0  0  0  0  0  0  0  0  0
   -6.6249   -2.8646  -22.9234 H   0  0  0  0  0  0  0  0  0  0  0  0
   -8.9570   -1.4227  -23.3723 C   0  0  0  0  0  0  0  0  0  0  0  0
  -10.4452   -1.3229  -23.2138 C   0  0  0  0  0  0  0  0  0  0  0  0
  -11.2422   -2.5360  -22.8354 C   0  0  0  0  0  0  0  0  0  0  0  0
  -12.7305   -2.4362  -22.6769 N   0  0  0  0  0  0  0  0  0  0  0  0
  -13.4218   -1.1233  -22.8967 C   0  0  0  0  0  0  0  0  0  0  0  0
  -12.6248    0.0899  -23.2752 C   0  0  0  0  0  0  0  0  0  0  0  0
  -13.3161    1.4027  -23.4950 C   0  0  0  0  0  0  0  0  0  0  0  0
  -12.5191    2.6158  -23.8734 C   0  0  0  0  0  0  0  0  0  0  0  0
  -11.0309    2.5160  -24.0319 C   0  0  0  0  0  0  0  0  0  0  0  0
  -10.3396    1.2031  -23.8121 C   0  0  0  0  0  0  0  0  0  0  0  0
  -11.1365   -0.0099  -23.4337 C   0  0  0  0  0  0  0  0  0  0  0  0
   -5.9653   -2.3331  -20.9287 C   0  0  0  0  0  0  0  0  0  0  0  0
   -5.2084   -1.1010  -20.5297 C   0  0  0  0  0  0  0  0  0  0  0  0
   -5.2584   -0.6168  -19.1108 C   0  0  0  0  0  0  0  0  0  0  0  0
   -4.5015    0.6153  -18.7118 C   0  0  0  0  0  0  0  0  0  0  0  0
   -3.6947    1.3631  -19.7316 C   0  0  0  0  0  0  0  0  0  0  0  0
   -3.6448    0.8788  -21.1504 C   0  0  0  0  0  0  0  0  0  0  0  0
   -2.8380    1.6266  -22.1701 Cl  0  0  0  0  0  0  0  0  0  0  0  0
   -4.4017   -0.3532  -21.5494 C   0  0  0  0  0  0  0  0  0  0  0  0
  1  2  2  0  0  0
  2  5  1  0  0  0
  5  6  1  0  0  0
  6  7  2  0  0  0
  7  8  1  0  0  0
  8  9  2  0  0  0
  9 10  1  0  0  0
 10 11  2  0  0  0
 11 12  1  0  0  0
 12 13  2  0  0  0
 13 14  1  0  0  0
 14 15  2  0  0  0
  2  3  1  0  0  0
  3 16  1  0  0  0
 16 17  1  0  0  0
 17 18  2  0  0  0
 18 19  1  0  0  0
 19 20  2  0  0  0
 20 21  1  0  0  0
 21 22  1  0  0  0
 21 23  2  0  0  0
 15  6  1  0  0  0
 23 17  1  0  0  0
 15 10  1  0  0  0
  3  4  1  0  0  0
M  END
> <minimizedAffinity>
-6.71804

> <CNNscore>
0.5016260743

> <CNNaffinity>
4.7920579910

> <CNN_VS>
2.4038212299

> <CNNaffinity_variance>
0.3802777231

$$$$



 23 25  0  0  0  0  0  0  0  0999 V2000
   -7.3687   -1.6020  -24.2548 O   0  0  0  0  0  0  0  0  0  0  0  0
   -7.2927   -1.0700  -22.8543 C   0  0  0  0  0  0  0  0  0  0  0  0
   -8.0310    0.1830  -22.4870 N   0  0  0  0  0  0  0  0  0  0  0  0
   -7.9812    0.5323  -21.5679 H   0  0  0  0  0  0  0  0  0  0  0  0
   -6.4784   -1.7908  -21.8213 C   0  0  0  0  0  0  0  0  0  0  0  0
   -6.0101   -1.0651  -20.5949 C   0  0  0  0  0  0  0  0  0  0  0  0
   -6.7283   -1.2536  -19.2917 C   0  0  0  0  0  0  0  0  0  0  0  0
   -6.2599   -0.5278  -18.0654 N   0  0  0  0  0  0  0  0  0  0  0  0
   -5.0733    0.3865  -18.1423 C   0  0  0  0  0  0  0  0  0  0  0  0
   -4.3550    0.5751  -19.4456 C   0  0  0  0  0  0  0  0  0  0  0  0
   -3.1684    1.4894  -19.5226 C   0  0  0  0  0  0  0  0  0  0  0  0
   -2.4502    1.6779  -20.8258 C   0  0  0  0  0  0  0  0  0  0  0  0
   -2.9185    0.9521  -22.0522 C   0  0  0  0  0  0  0  0  0  0  0  0
   -4.1051    0.0378  -21.9752 C   0  0  0  0  0  0  0  0  0  0  0  0
   -4.8234   -0.1507  -20.6719 C   0  0  0  0  0  0  0  0  0  0  0  0
   -8.8453    0.9039  -23.5201 C   0  0  0  0  0  0  0  0  0  0  0  0
  -10.3352    0.7335  -23.5536 C   0  0  0  0  0  0  0  0  0  0  0  0
  -10.9349   -0.6395  -23.4810 C   0  0  0  0  0  0  0  0  0  0  0  0
  -12.4248   -0.8099  -23.5145 C   0  0  0  0  0  0  0  0  0  0  0  0
  -13.3151    0.3927  -23.6206 C   0  0  0  0  0  0  0  0  0  0  0  0
  -12.7154    1.7657  -23.6932 C   0  0  0  0  0  0  0  0  0  0  0  0
  -13.6056    2.9682  -23.7993 Cl  0  0  0  0  0  0  0  0  0  0  0  0
  -11.2254    1.9361  -23.6597 C   0  0  0  0  0  0  0  0  0  0  0  0
  1  2  2  0  0  0
  2  5  1  0  0  0
  5  6  1  0  0  0
  6  7  2  0  0  0
  7  8  1  0  0  0
  8  9  2  0  0  0
  9 10  1  0  0  0
 10 11  2  0  0  0
 11 12  1  0  0  0
 12 13  2  0  0  0
 13 14  1  0  0  0
 14 15  2  0  0  0
  2  3  1  0  0  0
  3 16  1  0  0  0
 16 17  1  0  0  0
 17 18  2  0  0  0
 18 19  1  0  0  0
 19 20  2  0  0  0
 20 21  1  0  0  0
 21 22  1  0  0  0
 21 23  2  0  0  0
 15  6  1  0  0  0
 23 17  1  0  0  0
 15 10  1  0  0  0
  3  4  1  0  0  0
M  END
> <minimizedAffinity>
-6.94734

> <CNNscore>
0.4658137560

> <CNNaffinity>
4.8231439590

> <CNN_VS>
2.2466866970

> <CNNaffinity_variance>
0.1576361954

$$$$



 23 25  0  0  0  0  0  0  0  0999 V2000
   -9.1133   -2.7416  -22.4790 O   0  0  0  0  0  0  0  0  0  0  0  0
   -7.9768   -1.7692  -22.3643 C   0  0  0  0  0  0  0  0  0  0  0  0
   -6.7685   -1.9211  -23.2401 N   0  0  0  0  0  0  0  0  0  0  0  0
   -6.0227   -1.2829  -23.1649 H   0  0  0  0  0  0  0  0  0  0  0  0
   -8.0487   -0.6450  -21.3739 C   0  0  0  0  0  0  0  0  0  0  0  0
   -6.9714   -0.4841  -20.3426 C   0  0  0  0  0  0  0  0  0  0  0  0
   -7.0306   -1.2710  -19.0670 C   0  0  0  0  0  0  0  0  0  0  0  0
   -5.9533   -1.1100  -18.0357 N   0  0  0  0  0  0  0  0  0  0  0  0
   -4.8168   -0.1621  -18.2800 C   0  0  0  0  0  0  0  0  0  0  0  0
   -4.7575    0.6249  -19.5557 C   0  0  0  0  0  0  0  0  0  0  0  0
   -3.6210    1.5728  -19.8000 C   0  0  0  0  0  0  0  0  0  0  0  0
   -3.5618    2.3597  -21.0756 C   0  0  0  0  0  0  0  0  0  0  0  0
   -4.6390    2.1988  -22.1069 C   0  0  0  0  0  0  0  0  0  0  0  0
   -5.7756    1.2508  -21.8625 C   0  0  0  0  0  0  0  0  0  0  0  0
   -5.8348    0.4639  -20.5870 C   0  0  0  0  0  0  0  0  0  0  0  0
   -6.6967   -3.0453  -24.2306 C   0  0  0  0  0  0  0  0  0  0  0  0
   -6.8607   -4.4631  -23.7691 C   0  0  0  0  0  0  0  0  0  0  0  0
   -7.7624   -5.3970  -24.5207 C   0  0  0  0  0  0  0  0  0  0  0  0
   -7.9264   -6.8148  -24.0592 C   0  0  0  0  0  0  0  0  0  0  0  0
   -7.1886   -7.2987  -22.8460 C   0  0  0  0  0  0  0  0  0  0  0  0
   -6.2870   -6.3648  -22.0944 C   0  0  0  0  0  0  0  0  0  0  0  0
   -5.5493   -6.8487  -20.8814 Cl  0  0  0  0  0  0  0  0  0  0  0  0
   -6.1230   -4.9470  -22.5560 C   0  0  0  0  0  0  0  0  0  0  0  0
  1  2  2  0  0  0
  2  5  1  0  0  0
  5  6  1  0  0  0
  6  7  2  0  0  0
  7  8  1  0  0  0
  8  9  2  0  0  0
  9 10  1  0  0  0
 10 11  2  0  0  0
 11 12  1  0  0  0
 12 13  2  0  0  0
 13 14  1  0  0  0
 14 15  2  0  0  0
  2  3  1  0  0  0
  3 16  1  0  0  0
 16 17  1  0  0  0
 17 18  2  0  0  0
 18 19  1  0  0  0
 19 20  2  0  0  0
 20 21  1  0  0  0
 21 22  1  0  0  0
 21 23  2  0  0  0
 15  6  1  0  0  0
 23 17  1  0  0  0
 15 10  1  0  0  0
  3  4  1  0  0  0
M  END
> <minimizedAffinity>
-6.79394

> <CNNscore>
0.4494932890

> <CNNaffinity>
4.9278359413

> <CNN_VS>
2.2150292397

> <CNNaffinity_variance>
0.4049621522

$$$$
