


 40 41  0  0  0  0  0  0  0  0999 V2000
   -8.3809   -2.5009  -22.8063 C   0  0  0  0  0  0  0  0  0  0  0  0
   -8.3321   -3.7370  -23.6545 O   0  0  0  0  0  0  0  0  0  0  0  0
   -7.2894   -2.2285  -21.8141 N   0  0  0  0  0  0  0  0  0  0  0  0
   -7.2032   -1.0409  -20.9020 C   0  0  0  0  0  0  0  0  0  0  0  0
   -5.9530   -1.1743  -20.0840 C   0  0  0  0  0  0  0  0  0  0  0  0
   -5.2664   -2.4445  -20.4906 C   0  0  0  0  0  0  0  0  0  0  0  0
   -6.0924   -3.0960  -21.5599 C   0  0  0  0  0  0  0  0  0  0  0  0
   -5.4734   -0.2074  -19.0423 C   0  0  0  0  0  0  0  0  0  0  0  0
   -4.9939    0.7595  -18.0007 F   0  0  0  0  0  0  0  0  0  0  0  0
   -4.1485   -0.1136  -19.7393 F   0  0  0  0  0  0  0  0  0  0  0  0
   -6.7984   -0.3012  -18.3454 F   0  0  0  0  0  0  0  0  0  0  0  0
   -5.7768   -4.3882  -22.2532 C   0  0  0  0  0  0  0  0  0  0  0  0
   -5.6110   -5.6469  -21.4543 O   0  0  0  0  0  0  0  0  0  0  0  0
   -5.6269   -4.4217  -23.7453 N   0  0  0  0  0  0  0  0  0  0  0  0
   -5.7357   -3.5956  -24.2696 H   0  0  0  0  0  0  0  0  0  0  0  0
   -5.3113   -5.7139  -24.4385 C   0  0  0  0  0  0  0  0  0  0  0  0
   -4.6117   -6.8127  -23.6947 C   0  0  0  0  0  0  0  0  0  0  0  0
   -5.3963   -7.9735  -23.1590 N   0  0  0  0  0  0  0  0  0  0  0  0
   -6.4055   -8.0157  -23.3005 H   0  0  0  0  0  0  0  0  0  0  0  0
   -4.9206   -8.7207  -22.6532 H   0  0  0  0  0  0  0  0  0  0  0  0
   -5.9298   -8.7628  -22.7947 H   0  0  0  0  0  0  0  0  0  0  0  0
   -5.6952   -5.9074  -25.8755 C   0  0  0  0  0  0  0  0  0  0  0  0
   -7.0634   -6.4134  -26.2247 C   0  0  0  0  0  0  0  0  0  0  0  0
   -8.1148   -6.8562  -25.2507 C   0  0  0  0  0  0  0  0  0  0  0  0
   -9.3216   -7.2821  -26.0332 C   0  0  0  0  0  0  0  0  0  0  0  0
   -9.0162   -7.1024  -27.4907 N   0  0  0  0  0  0  0  0  0  0  0  0
   -7.6205   -6.5656  -27.6091 C   0  0  0  0  0  0  0  0  0  0  0  0
   -6.9072   -6.2383  -28.8874 O   0  0  0  0  0  0  0  0  0  0  0  0
   -9.6249   -7.3018  -28.2384 H   0  0  0  0  0  0  0  0  0  0  0  0
   -9.5212   -1.5370  -22.9503 C   0  0  0  0  0  0  0  0  0  0  0  0
  -11.7644   -2.8477  -22.9406 C   0  0  0  0  0  0  0  0  0  0  0  0
  -11.3596   -3.5500  -24.2027 O   0  0  0  0  0  0  0  0  0  0  0  0
  -10.8453   -1.8413  -22.3144 N   0  0  0  0  0  0  0  0  0  0  0  0
  -11.1110   -1.3804  -21.4860 H   0  0  0  0  0  0  0  0  0  0  0  0
  -14.1224   -2.0733  -22.1723 C   0  0  0  0  0  0  0  0  0  0  0  0
  -13.0885   -3.1520  -22.3047 O   0  0  0  0  0  0  0  0  0  0  0  0
   -9.3375   -0.2690  -23.7302 C   0  0  0  0  0  0  0  0  0  0  0  0
  -10.0556    0.4949  -22.6574 C   0  0  0  0  0  0  0  0  0  0  0  0
   -8.6193   -1.0328  -24.8030 C   0  0  0  0  0  0  0  0  0  0  0  0
   -9.1537    0.9991  -24.5101 C   0  0  0  0  0  0  0  0  0  0  0  0
 35 36  1  0  0  0
 36 31  1  0  0  0
 31 32  2  0  0  0
 31 33  1  0  0  0
 30 33  1  0  0  0
 30  1  1  0  0  0
  1  2  2  0  0  0
  1  3  1  0  0  0
  3  4  1  0  0  0
  4  5  1  0  0  0
  5  8  1  0  0  0
  8  9  1  0  0  0
  8 10  1  0  0  0
  8 11  1  0  0  0
  5  6  1  0  0  0
  6  7  1  0  0  0
  7 12  1  0  0  0
 12 13  2  0  0  0
 12 14  1  0  0  0
 14 16  1  0  0  0
 16 17  1  0  0  0
 17 18  1  0  0  0
 16 22  1  0  0  0
 23 22  1  0  0  0
 23 24  1  0  0  0
 24 25  1  0  0  0
 25 26  1  0  0  0
 26 27  1  0  0  0
 27 28  2  0  0  0
 30 37  1  0  0  0
 37 38  1  0  0  0
 37 39  1  0  0  0
 37 40  1  0  0  0
  7  3  1  0  0  0
 27 23  1  0  0  0
 33 34  1  0  0  0
 14 15  1  0  0  0
 18 19  1  0  0  0
 18 20  1  0  0  0
 18 21  1  0  0  0
 26 29  1  0  0  0
M  CHG 1  18   1
M  END
> <minimizedAffinity>
-7.49991

> <CNNscore>
0.5598262548

> <CNNaffinity>
6.6682863235

> <CNN_VS>
3.7330818176

> <CNNaffinity_variance>
0.0819911137

$$$$



 40 41  0  0  0  0  0  0  0  0999 V2000
   -7.2902   -3.5091  -22.5881 C   0  0  0  0  0  0  0  0  0  0  0  0
   -6.0240   -3.3367  -21.8028 O   0  0  0  0  0  0  0  0  0  0  0  0
   -8.2936   -2.3957  -22.6472 N   0  0  0  0  0  0  0  0  0  0  0  0
   -9.5977   -2.4224  -23.3880 C   0  0  0  0  0  0  0  0  0  0  0  0
  -10.2792   -1.1033  -23.1745 C   0  0  0  0  0  0  0  0  0  0  0  0
   -9.3964   -0.2614  -22.3017 C   0  0  0  0  0  0  0  0  0  0  0  0
   -8.1692   -1.0601  -21.9759 C   0  0  0  0  0  0  0  0  0  0  0  0
  -11.6099   -0.6975  -23.7353 C   0  0  0  0  0  0  0  0  0  0  0  0
  -12.9406   -0.2917  -24.2961 F   0  0  0  0  0  0  0  0  0  0  0  0
  -12.2107   -1.9781  -23.2363 F   0  0  0  0  0  0  0  0  0  0  0  0
  -11.0091    0.5831  -24.2342 F   0  0  0  0  0  0  0  0  0  0  0  0
   -7.0195   -0.6034  -21.1276 C   0  0  0  0  0  0  0  0  0  0  0  0
   -7.2206   -0.3566  -19.6617 O   0  0  0  0  0  0  0  0  0  0  0  0
   -5.6688   -0.3935  -21.7451 N   0  0  0  0  0  0  0  0  0  0  0  0
   -5.5368   -0.5555  -22.7071 H   0  0  0  0  0  0  0  0  0  0  0  0
   -4.5191    0.0632  -20.8967 C   0  0  0  0  0  0  0  0  0  0  0  0
   -4.5617   -0.1284  -19.4096 C   0  0  0  0  0  0  0  0  0  0  0  0
   -4.4600    1.0579  -18.4973 N   0  0  0  0  0  0  0  0  0  0  0  0
   -4.3619    1.9949  -18.8881 H   0  0  0  0  0  0  0  0  0  0  0  0
   -4.4889    0.9275  -17.4860 H   0  0  0  0  0  0  0  0  0  0  0  0
   -4.3908    1.8646  -17.8769 H   0  0  0  0  0  0  0  0  0  0  0  0
   -3.3268    0.7117  -21.5354 C   0  0  0  0  0  0  0  0  0  0  0  0
   -3.1935    2.2057  -21.5311 C   0  0  0  0  0  0  0  0  0  0  0  0
   -3.7710    3.1454  -22.5478 C   0  0  0  0  0  0  0  0  0  0  0  0
   -3.3936    4.5428  -22.1544 C   0  0  0  0  0  0  0  0  0  0  0  0
   -2.5829    4.4669  -20.8946 N   0  0  0  0  0  0  0  0  0  0  0  0
   -2.4592    3.0224  -20.5094 C   0  0  0  0  0  0  0  0  0  0  0  0
   -1.7294    2.4884  -19.3126 O   0  0  0  0  0  0  0  0  0  0  0  0
   -2.1993    5.2309  -20.4063 H   0  0  0  0  0  0  0  0  0  0  0  0
   -7.5530   -4.7949  -23.3144 C   0  0  0  0  0  0  0  0  0  0  0  0
   -8.9886   -5.5246  -25.3533 C   0  0  0  0  0  0  0  0  0  0  0  0
   -7.7391   -5.7544  -26.1508 O   0  0  0  0  0  0  0  0  0  0  0  0
   -8.8956   -5.0449  -23.9351 N   0  0  0  0  0  0  0  0  0  0  0  0
   -9.7156   -4.8940  -23.4117 H   0  0  0  0  0  0  0  0  0  0  0  0
  -10.4321   -6.1134  -27.4317 C   0  0  0  0  0  0  0  0  0  0  0  0
  -10.3311   -5.7745  -25.9740 O   0  0  0  0  0  0  0  0  0  0  0  0
   -6.4734   -5.8309  -23.4200 C   0  0  0  0  0  0  0  0  0  0  0  0
   -7.2369   -6.7219  -22.4857 C   0  0  0  0  0  0  0  0  0  0  0  0
   -5.7098   -4.9398  -24.3544 C   0  0  0  0  0  0  0  0  0  0  0  0
   -5.3937   -6.8668  -23.5257 C   0  0  0  0  0  0  0  0  0  0  0  0
 35 36  1  0  0  0
 36 31  1  0  0  0
 31 32  2  0  0  0
 31 33  1  0  0  0
 30 33  1  0  0  0
 30  1  1  0  0  0
  1  2  2  0  0  0
  1  3  1  0  0  0
  3  4  1  0  0  0
  4  5  1  0  0  0
  5  8  1  0  0  0
  8  9  1  0  0  0
  8 10  1  0  0  0
  8 11  1  0  0  0
  5  6  1  0  0  0
  6  7  1  0  0  0
  7 12  1  0  0  0
 12 13  2  0  0  0
 12 14  1  0  0  0
 14 16  1  0  0  0
 16 17  1  0  0  0
 17 18  1  0  0  0
 16 22  1  0  0  0
 23 22  1  0  0  0
 23 24  1  0  0  0
 24 25  1  0  0  0
 25 26  1  0  0  0
 26 27  1  0  0  0
 27 28  2  0  0  0
 30 37  1  0  0  0
 37 38  1  0  0  0
 37 39  1  0  0  0
 37 40  1  0  0  0
  7  3  1  0  0  0
 27 23  1  0  0  0
 33 34  1  0  0  0
 14 15  1  0  0  0
 18 19  1  0  0  0
 18 20  1  0  0  0
 18 21  1  0  0  0
 26 29  1  0  0  0
M  CHG 1  18   1
M  END
> <minimizedAffinity>
-7.32472

> <CNNscore>
0.5180788636

> <CNNaffinity>
6.2647867203

> <CNN_VS>
3.2456536293

> <CNNaffinity_variance>
0.1803459078

$$$$



 40 41  0  0  0  0  0  0  0  0999 V2000
   -7.6365   -0.5938  -21.7176 C   0  0  0  0  0  0  0  0  0  0  0  0
   -7.9245    0.8342  -21.3602 O   0  0  0  0  0  0  0  0  0  0  0  0
   -8.5293   -1.3211  -22.6788 N   0  0  0  0  0  0  0  0  0  0  0  0
   -8.3680   -2.7429  -23.1287 C   0  0  0  0  0  0  0  0  0  0  0  0
   -9.4791   -3.0549  -24.0868 C   0  0  0  0  0  0  0  0  0  0  0  0
  -10.3272   -1.8258  -24.2291 C   0  0  0  0  0  0  0  0  0  0  0  0
   -9.7401   -0.7543  -23.3589 C   0  0  0  0  0  0  0  0  0  0  0  0
   -9.7029   -4.3657  -24.7808 C   0  0  0  0  0  0  0  0  0  0  0  0
   -9.9267   -5.6766  -25.4748 F   0  0  0  0  0  0  0  0  0  0  0  0
   -8.2283   -4.6376  -24.7428 F   0  0  0  0  0  0  0  0  0  0  0  0
  -11.1776   -4.0938  -24.8188 F   0  0  0  0  0  0  0  0  0  0  0  0
  -10.2708    0.6393  -23.1972 C   0  0  0  0  0  0  0  0  0  0  0  0
  -10.9255    1.0480  -21.9111 O   0  0  0  0  0  0  0  0  0  0  0  0
  -10.1468    1.6242  -24.3218 N   0  0  0  0  0  0  0  0  0  0  0  0
   -9.7171    1.3560  -25.1659 H   0  0  0  0  0  0  0  0  0  0  0  0
  -10.6775    3.0179  -24.1600 C   0  0  0  0  0  0  0  0  0  0  0  0
   -9.7299    4.1791  -24.1002 C   0  0  0  0  0  0  0  0  0  0  0  0
   -9.8540    5.1926  -23.0013 N   0  0  0  0  0  0  0  0  0  0  0  0
  -10.5827    5.0921  -22.2947 H   0  0  0  0  0  0  0  0  0  0  0  0
   -9.2096    5.9822  -22.9607 H   0  0  0  0  0  0  0  0  0  0  0  0
   -9.9383    5.8817  -22.2541 H   0  0  0  0  0  0  0  0  0  0  0  0
  -12.1559    3.2503  -24.0580 C   0  0  0  0  0  0  0  0  0  0  0  0
  -12.7770    4.4368  -24.7335 C   0  0  0  0  0  0  0  0  0  0  0  0
  -12.7450    4.7308  -26.2041 C   0  0  0  0  0  0  0  0  0  0  0  0
  -13.4874    6.0134  -26.4366 C   0  0  0  0  0  0  0  0  0  0  0  0
  -13.9781    6.5120  -25.1097 N   0  0  0  0  0  0  0  0  0  0  0  0
  -13.5391    5.5376  -24.0571 C   0  0  0  0  0  0  0  0  0  0  0  0
  -13.8138    5.6451  -22.5865 O   0  0  0  0  0  0  0  0  0  0  0  0
  -14.4972    7.3344  -24.9566 H   0  0  0  0  0  0  0  0  0  0  0  0
   -6.4557   -1.2945  -21.1137 C   0  0  0  0  0  0  0  0  0  0  0  0
   -5.5466   -3.6827  -20.6442 C   0  0  0  0  0  0  0  0  0  0  0  0
   -5.4371   -3.3540  -19.1848 O   0  0  0  0  0  0  0  0  0  0  0  0
   -6.0559   -2.6529  -21.6087 N   0  0  0  0  0  0  0  0  0  0  0  0
   -6.1278   -2.8686  -22.5666 H   0  0  0  0  0  0  0  0  0  0  0  0
   -5.9185   -5.6922  -22.2485 C   0  0  0  0  0  0  0  0  0  0  0  0
   -5.1469   -5.0411  -21.1392 O   0  0  0  0  0  0  0  0  0  0  0  0
   -5.6746   -0.6368  -20.0149 C   0  0  0  0  0  0  0  0  0  0  0  0
   -4.5314   -0.4150  -20.9604 C   0  0  0  0  0  0  0  0  0  0  0  0
   -6.8178   -0.8587  -19.0695 C   0  0  0  0  0  0  0  0  0  0  0  0
   -4.8935    0.0208  -18.9161 C   0  0  0  0  0  0  0  0  0  0  0  0
 35 36  1  0  0  0
 36 31  1  0  0  0
 31 32  2  0  0  0
 31 33  1  0  0  0
 30 33  1  0  0  0
 30  1  1  0  0  0
  1  2  2  0  0  0
  1  3  1  0  0  0
  3  4  1  0  0  0
  4  5  1  0  0  0
  5  8  1  0  0  0
  8  9  1  0  0  0
  8 10  1  0  0  0
  8 11  1  0  0  0
  5  6  1  0  0  0
  6  7  1  0  0  0
  7 12  1  0  0  0
 12 13  2  0  0  0
 12 14  1  0  0  0
 14 16  1  0  0  0
 16 17  1  0  0  0
 17 18  1  0  0  0
 16 22  1  0  0  0
 23 22  1  0  0  0
 23 24  1  0  0  0
 24 25  1  0  0  0
 25 26  1  0  0  0
 26 27  1  0  0  0
 27 28  2  0  0  0
 30 37  1  0  0  0
 37 38  1  0  0  0
 37 39  1  0  0  0
 37 40  1  0  0  0
  7  3  1  0  0  0
 27 23  1  0  0  0
 33 34  1  0  0  0
 14 15  1  0  0  0
 18 19  1  0  0  0
 18 20  1  0  0  0
 18 21  1  0  0  0
 26 29  1  0  0  0
M  CHG 1  18   1
M  END
> <minimizedAffinity>
-7.22779

> <CNNscore>
0.4654448926

> <CNNaffinity>
6.1320900917

> <CNN_VS>
2.8541500568

> <CNNaffinity_variance>
0.0727793425

$$$$



 40 41  0  0  0  0  0  0  0  0999 V2000
   -9.2071   -1.9207  -22.3857 C   0  0  0  0  0  0  0  0  0  0  0  0
   -9.1554   -0.5795  -21.7161 O   0  0  0  0  0  0  0  0  0  0  0  0
   -8.0426   -2.8597  -22.2747 N   0  0  0  0  0  0  0  0  0  0  0  0
   -7.9503   -4.2260  -22.8869 C   0  0  0  0  0  0  0  0  0  0  0  0
   -6.6167   -4.8080  -22.5227 C   0  0  0  0  0  0  0  0  0  0  0  0
   -5.8847   -3.8014  -21.6854 C   0  0  0  0  0  0  0  0  0  0  0  0
   -6.7660   -2.5973  -21.5322 C   0  0  0  0  0  0  0  0  0  0  0  0
   -6.1049   -6.1594  -22.9250 C   0  0  0  0  0  0  0  0  0  0  0  0
   -5.5930   -7.5107  -23.3274 F   0  0  0  0  0  0  0  0  0  0  0  0
   -5.3428   -5.5341  -24.0557 F   0  0  0  0  0  0  0  0  0  0  0  0
   -6.8669   -6.7847  -21.7944 F   0  0  0  0  0  0  0  0  0  0  0  0
   -6.4297   -1.3498  -20.7702 C   0  0  0  0  0  0  0  0  0  0  0  0
   -7.3910   -0.8101  -19.7531 O   0  0  0  0  0  0  0  0  0  0  0  0
   -5.1320   -0.6421  -21.0252 N   0  0  0  0  0  0  0  0  0  0  0  0
   -4.5010   -0.9963  -21.6928 H   0  0  0  0  0  0  0  0  0  0  0  0
   -4.7957    0.6054  -20.2632 C   0  0  0  0  0  0  0  0  0  0  0  0
   -4.5599    0.5398  -18.7833 C   0  0  0  0  0  0  0  0  0  0  0  0
   -4.9482   -0.6891  -18.0157 N   0  0  0  0  0  0  0  0  0  0  0  0
   -5.3727   -1.4800  -18.5001 H   0  0  0  0  0  0  0  0  0  0  0  0
   -4.7878   -0.7337  -17.0094 H   0  0  0  0  0  0  0  0  0  0  0  0
   -5.2123   -1.5246  -17.4938 H   0  0  0  0  0  0  0  0  0  0  0  0
   -4.6954    1.9187  -20.9811 C   0  0  0  0  0  0  0  0  0  0  0  0
   -3.4449    2.2695  -21.7316 C   0  0  0  0  0  0  0  0  0  0  0  0
   -3.1304    1.8883  -23.1478 C   0  0  0  0  0  0  0  0  0  0  0  0
   -1.7806    2.4463  -23.4892 C   0  0  0  0  0  0  0  0  0  0  0  0
   -1.2608    3.1725  -22.2839 N   0  0  0  0  0  0  0  0  0  0  0  0
   -2.2895    3.0631  -21.1976 C   0  0  0  0  0  0  0  0  0  0  0  0
   -2.1817    3.6453  -19.8194 O   0  0  0  0  0  0  0  0  0  0  0  0
   -0.3963    3.6389  -22.2175 H   0  0  0  0  0  0  0  0  0  0  0  0
  -10.4232   -2.3229  -23.1662 C   0  0  0  0  0  0  0  0  0  0  0  0
   -9.9327   -3.7683  -25.2687 C   0  0  0  0  0  0  0  0  0  0  0  0
   -9.3707   -2.5645  -25.9652 O   0  0  0  0  0  0  0  0  0  0  0  0
  -10.4589   -3.6475  -23.8693 N   0  0  0  0  0  0  0  0  0  0  0  0
  -10.8278   -4.4376  -23.4122 H   0  0  0  0  0  0  0  0  0  0  0  0
   -9.5532   -5.1902  -27.4098 C   0  0  0  0  0  0  0  0  0  0  0  0
   -9.9685   -5.0929  -25.9718 O   0  0  0  0  0  0  0  0  0  0  0  0
  -11.6035   -1.4006  -23.2437 C   0  0  0  0  0  0  0  0  0  0  0  0
  -10.7559   -0.3738  -23.9346 C   0  0  0  0  0  0  0  0  0  0  0  0
  -12.4512   -2.4274  -22.5529 C   0  0  0  0  0  0  0  0  0  0  0  0
  -12.7839   -0.4783  -23.3213 C   0  0  0  0  0  0  0  0  0  0  0  0
 35 36  1  0  0  0
 36 31  1  0  0  0
 31 32  2  0  0  0
 31 33  1  0  0  0
 30 33  1  0  0  0
 30  1  1  0  0  0
  1  2  2  0  0  0
  1  3  1  0  0  0
  3  4  1  0  0  0
  4  5  1  0  0  0
  5  8  1  0  0  0
  8  9  1  0  0  0
  8 10  1  0  0  0
  8 11  1  0  0  0
  5  6  1  0  0  0
  6  7  1  0  0  0
  7 12  1  0  0  0
 12 13  2  0  0  0
 12 14  1  0  0  0
 14 16  1  0  0  0
 16 17  1  0  0  0
 17 18  1  0  0  0
 16 22  1  0  0  0
 23 22  1  0  0  0
 23 24  1  0  0  0
 24 25  1  0  0  0
 25 26  1  0  0  0
 26 27  1  0  0  0
 27 28  2  0  0  0
 30 37  1  0  0  0
 37 38  1  0  0  0
 37 39  1  0  0  0
 37 40  1  0  0  0
  7  3  1  0  0  0
 27 23  1  0  0  0
 33 34  1  0  0  0
 14 15  1  0  0  0
 18 19  1  0  0  0
 18 20  1  0  0  0
 18 21  1  0  0  0
 26 29  1  0  0  0
M  CHG 1  18   1
M  END
> <minimizedAffinity>
-7.49693

> <CNNscore>
0.4377151132

> <CNNaffinity>
6.2216196060

> <CNN_VS>
2.7232968807

> <CNNaffinity_variance>
0.3975114524

$$$$



 40 41  0  0  0  0  0  0  0  0999 V2000
   -9.9014   -1.6801  -23.6390 C   0  0  0  0  0  0  0  0  0  0  0  0
  -10.0835   -2.5335  -24.8589 O   0  0  0  0  0  0  0  0  0  0  0  0
   -8.6823   -1.8481  -22.7813 N   0  0  0  0  0  0  0  0  0  0  0  0
   -8.3650   -1.0711  -21.5380 C   0  0  0  0  0  0  0  0  0  0  0  0
   -7.0531   -1.5654  -21.0046 C   0  0  0  0  0  0  0  0  0  0  0  0
   -6.5596   -2.6479  -21.9182 C   0  0  0  0  0  0  0  0  0  0  0  0
   -7.5665   -2.8226  -23.0162 C   0  0  0  0  0  0  0  0  0  0  0  0
   -6.3570   -1.0650  -19.7737 C   0  0  0  0  0  0  0  0  0  0  0  0
   -5.6609   -0.5647  -18.5429 F   0  0  0  0  0  0  0  0  0  0  0  0
   -7.6466   -1.1450  -19.0119 F   0  0  0  0  0  0  0  0  0  0  0  0
   -5.0674   -0.9850  -20.5356 F   0  0  0  0  0  0  0  0  0  0  0  0
   -7.4738   -3.8002  -24.1500 C   0  0  0  0  0  0  0  0  0  0  0  0
   -6.6786   -3.4557  -25.3743 O   0  0  0  0  0  0  0  0  0  0  0  0
   -8.1763   -5.1225  -24.0596 N   0  0  0  0  0  0  0  0  0  0  0  0
   -8.6983   -5.3487  -23.2561 H   0  0  0  0  0  0  0  0  0  0  0  0
   -8.0836   -6.1000  -25.1936 C   0  0  0  0  0  0  0  0  0  0  0  0
   -9.3146   -6.4722  -25.9657 C   0  0  0  0  0  0  0  0  0  0  0  0
   -9.5224   -7.8904  -26.4077 N   0  0  0  0  0  0  0  0  0  0  0  0
   -8.8267   -8.6018  -26.1833 H   0  0  0  0  0  0  0  0  0  0  0  0
  -10.3595   -8.1435  -26.9328 H   0  0  0  0  0  0  0  0  0  0  0  0
   -9.6638   -8.8548  -26.7083 H   0  0  0  0  0  0  0  0  0  0  0  0
   -6.7598   -6.7055  -25.5554 C   0  0  0  0  0  0  0  0  0  0  0  0
   -5.7005   -6.8742  -24.5068 C   0  0  0  0  0  0  0  0  0  0  0  0
   -4.2198   -6.7752  -24.7255 C   0  0  0  0  0  0  0  0  0  0  0  0
   -3.5401   -7.0113  -23.4093 C   0  0  0  0  0  0  0  0  0  0  0  0
   -4.6007   -7.2563  -22.3772 N   0  0  0  0  0  0  0  0  0  0  0  0
   -5.9360   -7.1715  -23.0556 C   0  0  0  0  0  0  0  0  0  0  0  0
   -7.2720   -7.3523  -22.3981 O   0  0  0  0  0  0  0  0  0  0  0  0
   -4.4474   -7.4404  -21.4223 H   0  0  0  0  0  0  0  0  0  0  0  0
  -10.9383   -0.6586  -23.2767 C   0  0  0  0  0  0  0  0  0  0  0  0
   -9.6702    1.4678  -24.0644 C   0  0  0  0  0  0  0  0  0  0  0  0
   -9.2002    0.7350  -25.2859 O   0  0  0  0  0  0  0  0  0  0  0  0
  -10.5392    0.7710  -23.0598 N   0  0  0  0  0  0  0  0  0  0  0  0
  -10.8477    1.2520  -22.2580 H   0  0  0  0  0  0  0  0  0  0  0  0
   -9.8257    3.9736  -24.7329 C   0  0  0  0  0  0  0  0  0  0  0  0
   -9.2710    2.8974  -23.8474 O   0  0  0  0  0  0  0  0  0  0  0  0
  -12.3744   -1.0666  -23.1313 C   0  0  0  0  0  0  0  0  0  0  0  0
  -11.9446   -2.3467  -22.4780 C   0  0  0  0  0  0  0  0  0  0  0  0
  -12.8043    0.2134  -23.7846 C   0  0  0  0  0  0  0  0  0  0  0  0
  -13.8105   -1.4747  -22.9859 C   0  0  0  0  0  0  0  0  0  0  0  0
 35 36  1  0  0  0
 36 31  1  0  0  0
 31 32  2  0  0  0
 31 33  1  0  0  0
 30 33  1  0  0  0
 30  1  1  0  0  0
  1  2  2  0  0  0
  1  3  1  0  0  0
  3  4  1  0  0  0
  4  5  1  0  0  0
  5  8  1  0  0  0
  8  9  1  0  0  0
  8 10  1  0  0  0
  8 11  1  0  0  0
  5  6  1  0  0  0
  6  7  1  0  0  0
  7 12  1  0  0  0
 12 13  2  0  0  0
 12 14  1  0  0  0
 14 16  1  0  0  0
 16 17  1  0  0  0
 17 18  1  0  0  0
 16 22  1  0  0  0
 23 22  1  0  0  0
 23 24  1  0  0  0
 24 25  1  0  0  0
 25 26  1  0  0  0
 26 27  1  0  0  0
 27 28  2  0  0  0
 30 37  1  0  0  0
 37 38  1  0  0  0
 37 39  1  0  0  0
 37 40  1  0  0  0
  7  3  1  0  0  0
 27 23  1  0  0  0
 33 34  1  0  0  0
 14 15  1  0  0  0
 18 19  1  0  0  0
 18 20  1  0  0  0
 18 21  1  0  0  0
 26 29  1  0  0  0
M  CHG 1  18   1
M  END
> <minimizedAffinity>
-7.48288

> <CNNscore>
0.4260900021

> <CNNaffinity>
6.2965626717

> <CNN_VS>
2.6829023361

> <CNNaffinity_variance>
0.2933434546

$$$$



 40 41  0  0  0  0  0  0  0  0999 V2000
   -8.3018   -3.3061  -24.8455 C   0  0  0  0  0  0  0  0  0  0  0  0
   -6.9419   -2.7346  -25.1172 O   0  0  0  0  0  0  0  0  0  0  0  0
   -9.3833   -2.4331  -24.2813 N   0  0  0  0  0  0  0  0  0  0  0  0
  -10.7842   -2.8617  -23.9594 C   0  0  0  0  0  0  0  0  0  0  0  0
  -11.5205   -1.6717  -23.4190 C   0  0  0  0  0  0  0  0  0  0  0  0
  -10.5745   -0.5077  -23.4070 C   0  0  0  0  0  0  0  0  0  0  0  0
   -9.2537   -0.9783  -23.9399 C   0  0  0  0  0  0  0  0  0  0  0  0
  -12.9514   -1.6497  -22.9697 C   0  0  0  0  0  0  0  0  0  0  0  0
  -14.3823   -1.6277  -22.5203 F   0  0  0  0  0  0  0  0  0  0  0  0
  -12.7353   -2.9301  -22.2187 F   0  0  0  0  0  0  0  0  0  0  0  0
  -13.1675   -0.3694  -23.7206 F   0  0  0  0  0  0  0  0  0  0  0  0
   -8.0198   -0.1409  -24.1027 C   0  0  0  0  0  0  0  0  0  0  0  0
   -7.7076    0.4844  -25.4299 O   0  0  0  0  0  0  0  0  0  0  0  0
   -7.0982    0.0711  -22.9384 N   0  0  0  0  0  0  0  0  0  0  0  0
   -7.3031   -0.3394  -22.0673 H   0  0  0  0  0  0  0  0  0  0  0  0
   -5.8644    0.9084  -23.1014 C   0  0  0  0  0  0  0  0  0  0  0  0
   -4.8496    0.5533  -24.1475 C   0  0  0  0  0  0  0  0  0  0  0  0
   -4.1287   -0.7602  -24.0777 N   0  0  0  0  0  0  0  0  0  0  0  0
   -4.3285   -1.4120  -23.3190 H   0  0  0  0  0  0  0  0  0  0  0  0
   -3.4387   -1.0017  -24.7890 H   0  0  0  0  0  0  0  0  0  0  0  0
   -3.6384   -1.6534  -24.0303 H   0  0  0  0  0  0  0  0  0  0  0  0
   -5.6453    2.1009  -22.2183 C   0  0  0  0  0  0  0  0  0  0  0  0
   -4.5227    2.1013  -21.2234 C   0  0  0  0  0  0  0  0  0  0  0  0
   -3.2803    2.9387  -21.2963 C   0  0  0  0  0  0  0  0  0  0  0  0
   -2.4351    2.6193  -20.0990 C   0  0  0  0  0  0  0  0  0  0  0  0
   -3.1551    1.5845  -19.2860 N   0  0  0  0  0  0  0  0  0  0  0  0
   -4.4454    1.2644  -19.9810 C   0  0  0  0  0  0  0  0  0  0  0  0
   -5.4771    0.2802  -19.5152 O   0  0  0  0  0  0  0  0  0  0  0  0
   -2.8368    1.1856  -18.4441 H   0  0  0  0  0  0  0  0  0  0  0  0
   -8.5803   -4.7507  -25.1380 C   0  0  0  0  0  0  0  0  0  0  0  0
   -7.3020   -5.6786  -23.0752 C   0  0  0  0  0  0  0  0  0  0  0  0
   -6.3155   -4.5536  -23.1805 O   0  0  0  0  0  0  0  0  0  0  0  0
   -8.4344   -5.7772  -24.0539 N   0  0  0  0  0  0  0  0  0  0  0  0
   -9.0819   -6.5156  -23.9848 H   0  0  0  0  0  0  0  0  0  0  0  0
   -5.7909   -7.1036  -21.5145 C   0  0  0  0  0  0  0  0  0  0  0  0
   -7.1561   -6.7051  -21.9911 O   0  0  0  0  0  0  0  0  0  0  0  0
   -9.0047   -5.1689  -26.5146 C   0  0  0  0  0  0  0  0  0  0  0  0
  -10.2916   -5.7003  -25.9565 C   0  0  0  0  0  0  0  0  0  0  0  0
   -7.7178   -4.6375  -27.0728 C   0  0  0  0  0  0  0  0  0  0  0  0
   -9.4290   -5.5871  -27.8912 C   0  0  0  0  0  0  0  0  0  0  0  0
 35 36  1  0  0  0
 36 31  1  0  0  0
 31 32  2  0  0  0
 31 33  1  0  0  0
 30 33  1  0  0  0
 30  1  1  0  0  0
  1  2  2  0  0  0
  1  3  1  0  0  0
  3  4  1  0  0  0
  4  5  1  0  0  0
  5  8  1  0  0  0
  8  9  1  0  0  0
  8 10  1  0  0  0
  8 11  1  0  0  0
  5  6  1  0  0  0
  6  7  1  0  0  0
  7 12  1  0  0  0
 12 13  2  0  0  0
 12 14  1  0  0  0
 14 16  1  0  0  0
 16 17  1  0  0  0
 17 18  1  0  0  0
 16 22  1  0  0  0
 23 22  1  0  0  0
 23 24  1  0  0  0
 24 25  1  0  0  0
 25 26  1  0  0  0
 26 27  1  0  0  0
 27 28  2  0  0  0
 30 37  1  0  0  0
 37 38  1  0  0  0
 37 39  1  0  0  0
 37 40  1  0  0  0
  7  3  1  0  0  0
 27 23  1  0  0  0
 33 34  1  0  0  0
 14 15  1  0  0  0
 18 19  1  0  0  0
 18 20  1  0  0  0
 18 21  1  0  0  0
 26 29  1  0  0  0
M  CHG 1  18   1
M  END
> <minimizedAffinity>
-6.74341

> <CNNscore>
0.3984720707

> <CNNaffinity>
6.1167945862

> <CNN_VS>
2.4373717308

> <CNNaffinity_variance>
0.0701234564

$$$$



 40 41  0  0  0  0  0  0  0  0999 V2000
   -7.2830   -1.3657  -23.0984 C   0  0  0  0  0  0  0  0  0  0  0  0
   -6.3270   -2.4992  -23.3244 O   0  0  0  0  0  0  0  0  0  0  0  0
   -8.7542   -1.5729  -23.3047 N   0  0  0  0  0  0  0  0  0  0  0  0
   -9.8249   -0.5390  -23.1184 C   0  0  0  0  0  0  0  0  0  0  0  0
  -11.1455   -1.1775  -23.4320 C   0  0  0  0  0  0  0  0  0  0  0  0
  -10.8910   -2.6060  -23.8122 C   0  0  0  0  0  0  0  0  0  0  0  0
   -9.4131   -2.8504  -23.7335 C   0  0  0  0  0  0  0  0  0  0  0  0
  -12.4853   -0.5054  -23.3755 C   0  0  0  0  0  0  0  0  0  0  0  0
  -13.8251    0.1667  -23.3189 F   0  0  0  0  0  0  0  0  0  0  0  0
  -13.0492   -1.6907  -22.6494 F   0  0  0  0  0  0  0  0  0  0  0  0
  -11.9214    0.6799  -24.1015 F   0  0  0  0  0  0  0  0  0  0  0  0
   -8.7165   -4.1450  -24.0313 C   0  0  0  0  0  0  0  0  0  0  0  0
   -8.0545   -4.9122  -22.9254 O   0  0  0  0  0  0  0  0  0  0  0  0
   -8.6818   -4.6724  -25.4351 N   0  0  0  0  0  0  0  0  0  0  0  0
   -9.1163   -4.1689  -26.1610 H   0  0  0  0  0  0  0  0  0  0  0  0
   -7.9852   -5.9670  -25.7328 C   0  0  0  0  0  0  0  0  0  0  0  0
   -8.6981   -7.2692  -25.5180 C   0  0  0  0  0  0  0  0  0  0  0  0
   -9.7154   -7.7406  -26.5144 N   0  0  0  0  0  0  0  0  0  0  0  0
   -9.9224   -7.1757  -27.3380 H   0  0  0  0  0  0  0  0  0  0  0  0
  -10.2002   -8.6261  -26.3682 H   0  0  0  0  0  0  0  0  0  0  0  0
  -10.4072   -8.0612  -27.1919 H   0  0  0  0  0  0  0  0  0  0  0  0
   -6.5755   -5.9595  -26.2455 C   0  0  0  0  0  0  0  0  0  0  0  0
   -6.1901   -6.8450  -27.3932 C   0  0  0  0  0  0  0  0  0  0  0  0
   -4.9797   -7.7287  -27.4572 C   0  0  0  0  0  0  0  0  0  0  0  0
   -4.9889   -8.4322  -28.7820 C   0  0  0  0  0  0  0  0  0  0  0  0
   -6.2049   -7.9832  -29.5368 N   0  0  0  0  0  0  0  0  0  0  0  0
   -6.9473   -7.0022  -28.6785 C   0  0  0  0  0  0  0  0  0  0  0  0
   -8.2229   -6.3016  -29.0417 O   0  0  0  0  0  0  0  0  0  0  0  0
   -6.4694   -8.2802  -30.4375 H   0  0  0  0  0  0  0  0  0  0  0  0
   -6.7678   -0.0250  -22.6660 C   0  0  0  0  0  0  0  0  0  0  0  0
   -6.6575   -0.4196  -20.1004 C   0  0  0  0  0  0  0  0  0  0  0  0
   -7.9970   -1.0930  -20.1464 O   0  0  0  0  0  0  0  0  0  0  0  0
   -6.0428    0.1144  -21.3601 N   0  0  0  0  0  0  0  0  0  0  0  0
   -5.1637    0.5564  -21.3299 H   0  0  0  0  0  0  0  0  0  0  0  0
   -4.6475    0.4906  -18.7287 C   0  0  0  0  0  0  0  0  0  0  0  0
   -5.9326   -0.2802  -18.7945 O   0  0  0  0  0  0  0  0  0  0  0  0
   -6.9774    1.1763  -23.5394 C   0  0  0  0  0  0  0  0  0  0  0  0
   -6.3591    0.4449  -24.6938 C   0  0  0  0  0  0  0  0  0  0  0  0
   -7.5957    1.9077  -22.3849 C   0  0  0  0  0  0  0  0  0  0  0  0
   -7.1870    2.3777  -24.4128 C   0  0  0  0  0  0  0  0  0  0  0  0
 35 36  1  0  0  0
 36 31  1  0  0  0
 31 32  2  0  0  0
 31 33  1  0  0  0
 30 33  1  0  0  0
 30  1  1  0  0  0
  1  2  2  0  0  0
  1  3  1  0  0  0
  3  4  1  0  0  0
  4  5  1  0  0  0
  5  8  1  0  0  0
  8  9  1  0  0  0
  8 10  1  0  0  0
  8 11  1  0  0  0
  5  6  1  0  0  0
  6  7  1  0  0  0
  7 12  1  0  0  0
 12 13  2  0  0  0
 12 14  1  0  0  0
 14 16  1  0  0  0
 16 17  1  0  0  0
 17 18  1  0  0  0
 16 22  1  0  0  0
 23 22  1  0  0  0
 23 24  1  0  0  0
 24 25  1  0  0  0
 25 26  1  0  0  0
 26 27  1  0  0  0
 27 28  2  0  0  0
 30 37  1  0  0  0
 37 38  1  0  0  0
 37 39  1  0  0  0
 37 40  1  0  0  0
  7  3  1  0  0  0
 27 23  1  0  0  0
 33 34  1  0  0  0
 14 15  1  0  0  0
 18 19  1  0  0  0
 18 20  1  0  0  0
 18 21  1  0  0  0
 26 29  1  0  0  0
M  CHG 1  18   1
M  END
> <minimizedAffinity>
-7.08828

> <CNNscore>
0.3524650931

> <CNNaffinity>
6.0818734169

> <CNN_VS>
2.1436481476

> <CNNaffinity_variance>
0.1424238980

$$$$



 40 41  0  0  0  0  0  0  0  0999 V2000
   -8.8287   -1.2150  -22.5890 C   0  0  0  0  0  0  0  0  0  0  0  0
   -8.4847    0.1455  -22.0593 O   0  0  0  0  0  0  0  0  0  0  0  0
   -7.9153   -2.3754  -22.3258 N   0  0  0  0  0  0  0  0  0  0  0  0
   -8.1264   -3.7864  -22.7889 C   0  0  0  0  0  0  0  0  0  0  0  0
   -6.9719   -4.6115  -22.3026 C   0  0  0  0  0  0  0  0  0  0  0  0
   -6.0473   -3.7104  -21.5389 C   0  0  0  0  0  0  0  0  0  0  0  0
   -6.6304   -2.3284  -21.5533 C   0  0  0  0  0  0  0  0  0  0  0  0
   -6.7765   -6.0799  -22.5385 C   0  0  0  0  0  0  0  0  0  0  0  0
   -6.5810   -7.5482  -22.7744 F   0  0  0  0  0  0  0  0  0  0  0  0
   -5.8341   -6.1417  -21.3731 F   0  0  0  0  0  0  0  0  0  0  0  0
   -7.7188   -6.0181  -23.7039 F   0  0  0  0  0  0  0  0  0  0  0  0
   -6.0332   -1.1129  -20.9083 C   0  0  0  0  0  0  0  0  0  0  0  0
   -6.8453   -0.3002  -19.9440 O   0  0  0  0  0  0  0  0  0  0  0  0
   -4.6241   -0.7101  -21.2278 N   0  0  0  0  0  0  0  0  0  0  0  0
   -4.0911   -1.2435  -21.8607 H   0  0  0  0  0  0  0  0  0  0  0  0
   -4.0271    0.5055  -20.5828 C   0  0  0  0  0  0  0  0  0  0  0  0
   -4.5161    0.9582  -19.2389 C   0  0  0  0  0  0  0  0  0  0  0  0
   -4.6105   -0.0207  -18.1063 N   0  0  0  0  0  0  0  0  0  0  0  0
   -4.3422   -0.9943  -18.2500 H   0  0  0  0  0  0  0  0  0  0  0  0
   -4.9431    0.2871  -17.1925 H   0  0  0  0  0  0  0  0  0  0  0  0
   -4.6748   -0.6864  -17.3362 H   0  0  0  0  0  0  0  0  0  0  0  0
   -2.9410    1.2683  -21.2817 C   0  0  0  0  0  0  0  0  0  0  0  0
   -3.1104    2.7333  -21.5557 C   0  0  0  0  0  0  0  0  0  0  0  0
   -3.9934    3.3371  -22.6072 C   0  0  0  0  0  0  0  0  0  0  0  0
   -3.8554    4.8286  -22.5278 C   0  0  0  0  0  0  0  0  0  0  0  0
   -2.8870    5.1466  -21.4272 N   0  0  0  0  0  0  0  0  0  0  0  0
   -2.4266    3.8515  -20.8264 C   0  0  0  0  0  0  0  0  0  0  0  0
   -1.4533    3.7012  -19.6950 O   0  0  0  0  0  0  0  0  0  0  0  0
   -2.6035    6.0472  -21.1482 H   0  0  0  0  0  0  0  0  0  0  0  0
  -10.0861   -1.4152  -23.3819 C   0  0  0  0  0  0  0  0  0  0  0  0
  -11.2574    0.8472  -23.8916 C   0  0  0  0  0  0  0  0  0  0  0  0
  -10.1089    1.2436  -24.7713 O   0  0  0  0  0  0  0  0  0  0  0  0
  -11.2460   -0.4822  -23.1969 N   0  0  0  0  0  0  0  0  0  0  0  0
  -11.9998   -0.7424  -22.6196 H   0  0  0  0  0  0  0  0  0  0  0  0
  -12.6565    2.4243  -22.3732 C   0  0  0  0  0  0  0  0  0  0  0  0
  -12.4173    1.7802  -23.7066 O   0  0  0  0  0  0  0  0  0  0  0  0
  -10.1837   -2.5484  -24.3599 C   0  0  0  0  0  0  0  0  0  0  0  0
  -11.3002   -3.1460  -23.5560 C   0  0  0  0  0  0  0  0  0  0  0  0
   -9.0672   -1.9507  -25.1638 C   0  0  0  0  0  0  0  0  0  0  0  0
  -10.2813   -3.6815  -25.3378 C   0  0  0  0  0  0  0  0  0  0  0  0
 35 36  1  0  0  0
 36 31  1  0  0  0
 31 32  2  0  0  0
 31 33  1  0  0  0
 30 33  1  0  0  0
 30  1  1  0  0  0
  1  2  2  0  0  0
  1  3  1  0  0  0
  3  4  1  0  0  0
  4  5  1  0  0  0
  5  8  1  0  0  0
  8  9  1  0  0  0
  8 10  1  0  0  0
  8 11  1  0  0  0
  5  6  1  0  0  0
  6  7  1  0  0  0
  7 12  1  0  0  0
 12 13  2  0  0  0
 12 14  1  0  0  0
 14 16  1  0  0  0
 16 17  1  0  0  0
 17 18  1  0  0  0
 16 22  1  0  0  0
 23 22  1  0  0  0
 23 24  1  0  0  0
 24 25  1  0  0  0
 25 26  1  0  0  0
 26 27  1  0  0  0
 27 28  2  0  0  0
 30 37  1  0  0  0
 37 38  1  0  0  0
 37 39  1  0  0  0
 37 40  1  0  0  0
  7  3  1  0  0  0
 27 23  1  0  0  0
 33 34  1  0  0  0
 14 15  1  0  0  0
 18 19  1  0  0  0
 18 20  1  0  0  0
 18 21  1  0  0  0
 26 29  1  0  0  0
M  CHG 1  18   1
M  END
> <minimizedAffinity>
-6.85143

> <CNNscore>
0.3364780843

> <CNNaffinity>
6.1970372200

> <CNN_VS>
2.0851671696

> <CNNaffinity_variance>
0.5935901403

$$$$



 40 41  0  0  0  0  0  0  0  0999 V2000
   -8.8774   -1.9840  -23.9743 C   0  0  0  0  0  0  0  0  0  0  0  0
   -8.7448   -2.8018  -25.2248 O   0  0  0  0  0  0  0  0  0  0  0  0
   -7.8325   -2.0783  -22.9022 N   0  0  0  0  0  0  0  0  0  0  0  0
   -7.8302   -1.3257  -21.6047 C   0  0  0  0  0  0  0  0  0  0  0  0
   -6.6028   -1.7240  -20.8400 C   0  0  0  0  0  0  0  0  0  0  0  0
   -5.8464   -2.7226  -21.6649 C   0  0  0  0  0  0  0  0  0  0  0  0
   -6.6064   -2.9416  -22.9394 C   0  0  0  0  0  0  0  0  0  0  0  0
   -6.2021   -1.2132  -19.4877 C   0  0  0  0  0  0  0  0  0  0  0  0
   -5.8013   -0.7024  -18.1355 F   0  0  0  0  0  0  0  0  0  0  0  0
   -7.5972   -1.4437  -18.9872 F   0  0  0  0  0  0  0  0  0  0  0  0
   -4.8069   -0.9826  -19.9883 F   0  0  0  0  0  0  0  0  0  0  0  0
   -6.2100   -3.8623  -24.0553 C   0  0  0  0  0  0  0  0  0  0  0  0
   -5.4590   -3.3270  -25.2383 O   0  0  0  0  0  0  0  0  0  0  0  0
   -6.5644   -5.3183  -23.9881 N   0  0  0  0  0  0  0  0  0  0  0  0
   -7.0572   -5.6696  -23.2117 H   0  0  0  0  0  0  0  0  0  0  0  0
   -6.1678   -6.2389  -25.1041 C   0  0  0  0  0  0  0  0  0  0  0  0
   -5.2235   -7.3740  -24.8403 C   0  0  0  0  0  0  0  0  0  0  0  0
   -5.0391   -7.8870  -23.4428 N   0  0  0  0  0  0  0  0  0  0  0  0
   -5.5559   -7.4639  -22.6719 H   0  0  0  0  0  0  0  0  0  0  0  0
   -4.3969   -8.6589  -23.2634 H   0  0  0  0  0  0  0  0  0  0  0  0
   -4.9138   -8.2358  -22.4925 H   0  0  0  0  0  0  0  0  0  0  0  0
   -6.7157   -6.0243  -26.4838 C   0  0  0  0  0  0  0  0  0  0  0  0
   -8.1905   -6.1414  -26.7318 C   0  0  0  0  0  0  0  0  0  0  0  0
   -9.2663   -6.0970  -25.6875 C   0  0  0  0  0  0  0  0  0  0  0  0
  -10.5890   -6.2516  -26.3778 C   0  0  0  0  0  0  0  0  0  0  0  0
  -10.3307   -6.3916  -27.8488 N   0  0  0  0  0  0  0  0  0  0  0  0
   -8.8482   -6.3236  -28.0675 C   0  0  0  0  0  0  0  0  0  0  0  0
   -8.1467   -6.4206  -29.3898 O   0  0  0  0  0  0  0  0  0  0  0  0
  -11.0140   -6.5078  -28.5479 H   0  0  0  0  0  0  0  0  0  0  0  0
  -10.0548   -1.0721  -23.7959 C   0  0  0  0  0  0  0  0  0  0  0  0
   -9.6279    1.4255  -23.2214 C   0  0  0  0  0  0  0  0  0  0  0  0
   -9.3823    1.0540  -21.7891 O   0  0  0  0  0  0  0  0  0  0  0  0
   -9.9642    0.3625  -24.2249 N   0  0  0  0  0  0  0  0  0  0  0  0
  -10.1254    0.6063  -25.1650 H   0  0  0  0  0  0  0  0  0  0  0  0
  -10.6477    3.4757  -24.4490 C   0  0  0  0  0  0  0  0  0  0  0  0
   -9.5373    2.8601  -23.6504 O   0  0  0  0  0  0  0  0  0  0  0  0
  -11.3230   -1.5946  -23.1887 C   0  0  0  0  0  0  0  0  0  0  0  0
  -10.5767   -2.7786  -22.6490 C   0  0  0  0  0  0  0  0  0  0  0  0
  -12.0692   -0.4105  -23.7283 C   0  0  0  0  0  0  0  0  0  0  0  0
  -12.5911   -2.1171  -22.5814 C   0  0  0  0  0  0  0  0  0  0  0  0
 35 36  1  0  0  0
 36 31  1  0  0  0
 31 32  2  0  0  0
 31 33  1  0  0  0
 30 33  1  0  0  0
 30  1  1  0  0  0
  1  2  2  0  0  0
  1  3  1  0  0  0
  3  4  1  0  0  0
  4  5  1  0  0  0
  5  8  1  0  0  0
  8  9  1  0  0  0
  8 10  1  0  0  0
  8 11  1  0  0  0
  5  6  1  0  0  0
  6  7  1  0  0  0
  7 12  1  0  0  0
 12 13  2  0  0  0
 12 14  1  0  0  0
 14 16  1  0  0  0
 16 17  1  0  0  0
 17 18  1  0  0  0
 16 22  1  0  0  0
 23 22  1  0  0  0
 23 24  1  0  0  0
 24 25  1  0  0  0
 25 26  1  0  0  0
 26 27  1  0  0  0
 27 28  2  0  0  0
 30 37  1  0  0  0
 37 38  1  0  0  0
 37 39  1  0  0  0
 37 40  1  0  0  0
  7  3  1  0  0  0
 27 23  1  0  0  0
 33 34  1  0  0  0
 14 15  1  0  0  0
 18 19  1  0  0  0
 18 20  1  0  0  0
 18 21  1  0  0  0
 26 29  1  0  0  0
M  CHG 1  18   1
M  END
> <minimizedAffinity>
-7.42651

> <CNNscore>
0.3256751597

> <CNNaffinity>
6.0921616554

> <CNN_VS>
1.9840657711

> <CNNaffinity_variance>
0.2739499211

$$$$
