


 37 42  0  0  0  0  0  0  0  0999 V2000
   -7.2154   -0.0900  -21.0512 C   0  0  0  0  0  0  0  0  0  0  0  0
   -8.3894   -0.2157  -21.9763 C   0  0  0  0  0  0  0  0  0  0  0  0
   -9.1797    1.0567  -22.0572 C   0  0  0  0  0  0  0  0  0  0  0  0
  -10.3245    0.8322  -23.0000 N   0  0  0  0  0  0  0  0  0  0  0  0
  -10.2418   -0.5790  -23.5018 C   0  0  0  0  0  0  0  0  0  0  0  0
  -11.1888   -1.2285  -24.4669 O   0  0  0  0  0  0  0  0  0  0  0  0
   -9.0458   -1.2266  -22.8691 C   0  0  0  0  0  0  0  0  0  0  0  0
   -9.8078   -2.1265  -23.7963 C   0  0  0  0  0  0  0  0  0  0  0  0
   -9.3488   -3.5373  -24.0175 N   0  0  0  0  0  0  0  0  0  0  0  0
   -8.1279   -4.0482  -23.3117 C   0  0  0  0  0  0  0  0  0  0  0  0
   -7.6690   -5.4591  -23.5329 O   0  0  0  0  0  0  0  0  0  0  0  0
   -7.3659   -3.1484  -22.3845 C   0  0  0  0  0  0  0  0  0  0  0  0
   -6.1450   -3.6593  -21.6786 C   0  0  0  0  0  0  0  0  0  0  0  0
   -5.3831   -2.7594  -20.7515 C   0  0  0  0  0  0  0  0  0  0  0  0
   -5.8420   -1.3486  -20.5302 C   0  0  0  0  0  0  0  0  0  0  0  0
   -5.0800   -0.4487  -19.6030 Cl  0  0  0  0  0  0  0  0  0  0  0  0
   -7.0629   -0.8377  -21.2361 C   0  0  0  0  0  0  0  0  0  0  0  0
   -7.8249   -1.7375  -22.1632 C   0  0  0  0  0  0  0  0  0  0  0  0
  -11.3687    1.8415  -23.3752 C   0  0  0  0  0  0  0  0  0  0  0  0
  -12.7988    1.6241  -22.9784 C   0  0  0  0  0  0  0  0  0  0  0  0
  -13.8430    2.6335  -23.3536 N   0  0  0  0  0  0  0  0  0  0  0  0
  -13.4571    3.8603  -24.1257 C   0  0  0  0  0  0  0  0  0  0  0  0
  -12.0269    4.0777  -24.5225 C   0  0  0  0  0  0  0  0  0  0  0  0
  -11.6410    5.3046  -25.2945 C   0  0  0  0  0  0  0  0  0  0  0  0
  -10.2109    5.5219  -25.6913 C   0  0  0  0  0  0  0  0  0  0  0  0
   -9.1668    4.5125  -25.3161 C   0  0  0  0  0  0  0  0  0  0  0  0
   -9.5527    3.2857  -24.5441 C   0  0  0  0  0  0  0  0  0  0  0  0
  -10.9827    3.0683  -24.1473 C   0  0  0  0  0  0  0  0  0  0  0  0
  -10.1109   -4.4372  -24.9447 C   0  0  0  0  0  0  0  0  0  0  0  0
   -9.9573   -4.2878  -26.4293 C   0  0  0  0  0  0  0  0  0  0  0  0
   -8.8558   -5.0111  -27.1459 N   0  0  0  0  0  0  0  0  0  0  0  0
   -9.1733   -6.1999  -28.0039 C   0  0  0  0  0  0  0  0  0  0  0  0
   -8.0718   -6.9232  -28.7205 C   0  0  0  0  0  0  0  0  0  0  0  0
   -6.6529   -6.4579  -28.5791 O   0  0  0  0  0  0  0  0  0  0  0  0
   -6.3354   -5.2692  -27.7211 C   0  0  0  0  0  0  0  0  0  0  0  0
   -7.4369   -4.5458  -27.0045 C   0  0  0  0  0  0  0  0  0  0  0  0
   -8.1068   -5.5030  -27.6332 H   0  0  0  0  0  0  0  0  0  0  0  0
  2  1  1  0  0  0
  2  3  1  0  0  0
  3  4  1  0  0  0
  4 19  1  0  0  0
 19 20  2  0  0  0
 20 21  1  0  0  0
 21 22  2  0  0  0
 22 23  1  0  0  0
 23 24  2  0  0  0
 24 25  1  0  0  0
 25 26  2  0  0  0
 26 27  1  0  0  0
 27 28  2  0  0  0
  4  5  1  0  0  0
  5  6  2  0  0  0
  5  7  1  0  0  0
  7  8  1  0  0  0
  8  9  1  0  0  0
  9 29  1  0  0  0
 29 30  1  0  0  0
 30 31  1  0  0  0
 31 32  1  0  0  0
 32 33  1  0  0  0
 33 34  1  0  0  0
 34 35  1  0  0  0
 35 36  1  0  0  0
  9 10  1  0  0  0
 10 11  2  0  0  0
 10 12  1  0  0  0
 12 13  2  0  0  0
 13 14  1  0  0  0
 14 15  2  0  0  0
 15 16  1  0  0  0
 15 17  1  0  0  0
 17 18  2  0  0  0
  7  2  1  0  0  0
 36 31  1  0  0  0
 18 12  1  0  0  0
 28 19  1  0  0  0
 18  7  1  0  0  0
 28 23  1  0  0  0
 31 37  1  0  0  0
M  CHG 1  31   1
M  END
> <minimizedAffinity>
-8.73361

> <CNNscore>
0.2646949291

> <CNNaffinity>
6.0698103905

> <CNN_VS>
1.6066480875

> <CNNaffinity_variance>
0.3164633214

$$$$



 37 42  0  0  0  0  0  0  0  0999 V2000
  -10.6971    2.1526  -23.3898 C   0  0  0  0  0  0  0  0  0  0  0  0
   -9.3062    1.5929  -23.3427 C   0  0  0  0  0  0  0  0  0  0  0  0
   -8.2713    2.6704  -23.2088 C   0  0  0  0  0  0  0  0  0  0  0  0
   -6.9224    2.0153  -23.1706 N   0  0  0  0  0  0  0  0  0  0  0  0
   -7.1238    0.5330  -23.2809 C   0  0  0  0  0  0  0  0  0  0  0  0
   -6.0418   -0.5059  -23.2842 O   0  0  0  0  0  0  0  0  0  0  0  0
   -8.5971    0.2719  -23.3873 C   0  0  0  0  0  0  0  0  0  0  0  0
   -7.7540   -0.9683  -23.4184 C   0  0  0  0  0  0  0  0  0  0  0  0
   -8.4039   -2.3140  -23.5468 N   0  0  0  0  0  0  0  0  0  0  0  0
   -9.8970   -2.4196  -23.6440 C   0  0  0  0  0  0  0  0  0  0  0  0
  -10.5470   -3.7653  -23.7724 O   0  0  0  0  0  0  0  0  0  0  0  0
  -10.7402   -1.1793  -23.6129 C   0  0  0  0  0  0  0  0  0  0  0  0
  -12.2333   -1.2849  -23.7102 C   0  0  0  0  0  0  0  0  0  0  0  0
  -13.0764   -0.0447  -23.6791 C   0  0  0  0  0  0  0  0  0  0  0  0
  -12.4264    1.3011  -23.5507 C   0  0  0  0  0  0  0  0  0  0  0  0
  -13.2696    2.5413  -23.5196 Cl  0  0  0  0  0  0  0  0  0  0  0  0
  -10.9333    1.4066  -23.4534 C   0  0  0  0  0  0  0  0  0  0  0  0
  -10.0902    0.1664  -23.4846 C   0  0  0  0  0  0  0  0  0  0  0  0
   -5.6037    2.7189  -23.0443 C   0  0  0  0  0  0  0  0  0  0  0  0
   -5.1887    3.7251  -24.0763 C   0  0  0  0  0  0  0  0  0  0  0  0
   -3.8700    4.4288  -23.9499 N   0  0  0  0  0  0  0  0  0  0  0  0
   -2.9664    4.1261  -22.7916 C   0  0  0  0  0  0  0  0  0  0  0  0
   -3.3815    3.1198  -21.7595 C   0  0  0  0  0  0  0  0  0  0  0  0
   -2.4778    2.8172  -20.6011 C   0  0  0  0  0  0  0  0  0  0  0  0
   -2.8930    1.8109  -19.5691 C   0  0  0  0  0  0  0  0  0  0  0  0
   -4.2116    1.1073  -19.6955 C   0  0  0  0  0  0  0  0  0  0  0  0
   -5.1152    1.4100  -20.8538 C   0  0  0  0  0  0  0  0  0  0  0  0
   -4.7002    2.4162  -21.8858 C   0  0  0  0  0  0  0  0  0  0  0  0
   -7.5608   -3.5543  -23.5779 C   0  0  0  0  0  0  0  0  0  0  0  0
   -7.1602   -4.1561  -24.8921 C   0  0  0  0  0  0  0  0  0  0  0  0
   -8.1692   -4.9019  -25.7141 N   0  0  0  0  0  0  0  0  0  0  0  0
   -8.8365   -4.2272  -26.8759 C   0  0  0  0  0  0  0  0  0  0  0  0
   -9.8455   -4.9729  -27.6978 C   0  0  0  0  0  0  0  0  0  0  0  0
  -10.1873   -6.3934  -27.3581 O   0  0  0  0  0  0  0  0  0  0  0  0
   -9.5201   -7.0681  -26.1964 C   0  0  0  0  0  0  0  0  0  0  0  0
   -8.5110   -6.3223  -25.3744 C   0  0  0  0  0  0  0  0  0  0  0  0
   -8.8554   -5.4090  -26.2730 H   0  0  0  0  0  0  0  0  0  0  0  0
  2  1  1  0  0  0
  2  3  1  0  0  0
  3  4  1  0  0  0
  4 19  1  0  0  0
 19 20  2  0  0  0
 20 21  1  0  0  0
 21 22  2  0  0  0
 22 23  1  0  0  0
 23 24  2  0  0  0
 24 25  1  0  0  0
 25 26  2  0  0  0
 26 27  1  0  0  0
 27 28  2  0  0  0
  4  5  1  0  0  0
  5  6  2  0  0  0
  5  7  1  0  0  0
  7  8  1  0  0  0
  8  9  1  0  0  0
  9 29  1  0  0  0
 29 30  1  0  0  0
 30 31  1  0  0  0
 31 32  1  0  0  0
 32 33  1  0  0  0
 33 34  1  0  0  0
 34 35  1  0  0  0
 35 36  1  0  0  0
  9 10  1  0  0  0
 10 11  2  0  0  0
 10 12  1  0  0  0
 12 13  2  0  0  0
 13 14  1  0  0  0
 14 15  2  0  0  0
 15 16  1  0  0  0
 15 17  1  0  0  0
 17 18  2  0  0  0
  7  2  1  0  0  0
 36 31  1  0  0  0
 18 12  1  0  0  0
 28 19  1  0  0  0
 18  7  1  0  0  0
 28 23  1  0  0  0
 31 37  1  0  0  0
M  CHG 1  31   1
M  END
> <minimizedAffinity>
-8.01105

> <CNNscore>
0.2529796660

> <CNNaffinity>
6.2451257706

> <CNN_VS>
1.5798897743

> <CNNaffinity_variance>
0.1333270371

$$$$



 37 42  0  0  0  0  0  0  0  0999 V2000
  -10.7666    2.4497  -23.4979 C   0  0  0  0  0  0  0  0  0  0  0  0
   -9.5072    1.6526  -23.3287 C   0  0  0  0  0  0  0  0  0  0  0  0
   -8.2892    2.5273  -23.2927 C   0  0  0  0  0  0  0  0  0  0  0  0
   -7.0890    1.6440  -23.1218 N   0  0  0  0  0  0  0  0  0  0  0  0
   -7.5653    0.2233  -23.0522 C   0  0  0  0  0  0  0  0  0  0  0  0
   -6.6991   -0.9898  -22.8842 O   0  0  0  0  0  0  0  0  0  0  0  0
   -9.0598    0.2286  -23.1800 C   0  0  0  0  0  0  0  0  0  0  0  0
   -8.4658   -1.1398  -23.0231 C   0  0  0  0  0  0  0  0  0  0  0  0
   -9.3566   -2.3465  -23.0054 N   0  0  0  0  0  0  0  0  0  0  0  0
  -10.8413   -2.1849  -23.1445 C   0  0  0  0  0  0  0  0  0  0  0  0
  -11.7320   -3.3917  -23.1268 O   0  0  0  0  0  0  0  0  0  0  0  0
  -11.4354   -0.8165  -23.3014 C   0  0  0  0  0  0  0  0  0  0  0  0
  -12.9201   -0.6548  -23.4405 C   0  0  0  0  0  0  0  0  0  0  0  0
  -13.5141    0.7135  -23.5973 C   0  0  0  0  0  0  0  0  0  0  0  0
  -12.6233    1.9203  -23.6151 C   0  0  0  0  0  0  0  0  0  0  0  0
  -13.2174    3.2887  -23.7719 Cl  0  0  0  0  0  0  0  0  0  0  0  0
  -11.1386    1.7587  -23.4760 C   0  0  0  0  0  0  0  0  0  0  0  0
  -10.5446    0.3903  -23.3191 C   0  0  0  0  0  0  0  0  0  0  0  0
   -5.6629    2.1010  -23.0358 C   0  0  0  0  0  0  0  0  0  0  0  0
   -5.0893    2.5241  -21.7160 C   0  0  0  0  0  0  0  0  0  0  0  0
   -3.6633    2.9811  -21.6299 N   0  0  0  0  0  0  0  0  0  0  0  0
   -2.8108    3.0150  -22.8637 C   0  0  0  0  0  0  0  0  0  0  0  0
   -3.3844    2.5918  -24.1835 C   0  0  0  0  0  0  0  0  0  0  0  0
   -2.5319    2.6256  -25.4173 C   0  0  0  0  0  0  0  0  0  0  0  0
   -3.1056    2.2025  -26.7371 C   0  0  0  0  0  0  0  0  0  0  0  0
   -4.5316    1.7455  -26.8231 C   0  0  0  0  0  0  0  0  0  0  0  0
   -5.3841    1.7116  -25.5893 C   0  0  0  0  0  0  0  0  0  0  0  0
   -4.8105    2.1348  -24.2696 C   0  0  0  0  0  0  0  0  0  0  0  0
   -8.7625   -3.7150  -22.8485 C   0  0  0  0  0  0  0  0  0  0  0  0
   -7.5898   -4.1244  -23.6894 C   0  0  0  0  0  0  0  0  0  0  0  0
   -7.7692   -5.1304  -24.7875 N   0  0  0  0  0  0  0  0  0  0  0  0
   -9.1482   -5.5040  -25.2445 C   0  0  0  0  0  0  0  0  0  0  0  0
   -9.3275   -6.5100  -26.3426 C   0  0  0  0  0  0  0  0  0  0  0  0
   -8.1279   -7.1423  -26.9837 O   0  0  0  0  0  0  0  0  0  0  0  0
   -6.7490   -6.7687  -26.5268 C   0  0  0  0  0  0  0  0  0  0  0  0
   -6.5695   -5.7627  -25.4286 C   0  0  0  0  0  0  0  0  0  0  0  0
   -7.8911   -5.8144  -25.5342 H   0  0  0  0  0  0  0  0  0  0  0  0
  2  1  1  0  0  0
  2  3  1  0  0  0
  3  4  1  0  0  0
  4 19  1  0  0  0
 19 20  2  0  0  0
 20 21  1  0  0  0
 21 22  2  0  0  0
 22 23  1  0  0  0
 23 24  2  0  0  0
 24 25  1  0  0  0
 25 26  2  0  0  0
 26 27  1  0  0  0
 27 28  2  0  0  0
  4  5  1  0  0  0
  5  6  2  0  0  0
  5  7  1  0  0  0
  7  8  1  0  0  0
  8  9  1  0  0  0
  9 29  1  0  0  0
 29 30  1  0  0  0
 30 31  1  0  0  0
 31 32  1  0  0  0
 32 33  1  0  0  0
 33 34  1  0  0  0
 34 35  1  0  0  0
 35 36  1  0  0  0
  9 10  1  0  0  0
 10 11  2  0  0  0
 10 12  1  0  0  0
 12 13  2  0  0  0
 13 14  1  0  0  0
 14 15  2  0  0  0
 15 16  1  0  0  0
 15 17  1  0  0  0
 17 18  2  0  0  0
  7  2  1  0  0  0
 36 31  1  0  0  0
 18 12  1  0  0  0
 28 19  1  0  0  0
 18  7  1  0  0  0
 28 23  1  0  0  0
 31 37  1  0  0  0
M  CHG 1  31   1
M  END
> <minimizedAffinity>
-7.26144

> <CNNscore>
0.2189410031

> <CNNaffinity>
6.1355729103

> <CNN_VS>
1.3433284760

> <CNNaffinity_variance>
0.1811358035

$$$$



 37 42  0  0  0  0  0  0  0  0999 V2000
   -7.4233   -5.0987  -23.2246 C   0  0  0  0  0  0  0  0  0  0  0  0
   -7.1451   -3.6304  -23.0950 C   0  0  0  0  0  0  0  0  0  0  0  0
   -6.6928   -3.2642  -21.7125 C   0  0  0  0  0  0  0  0  0  0  0  0
   -6.4415   -1.7856  -21.6835 N   0  0  0  0  0  0  0  0  0  0  0  0
   -6.7385   -1.2382  -23.0481 C   0  0  0  0  0  0  0  0  0  0  0  0
   -6.6212    0.1974  -23.4668 O   0  0  0  0  0  0  0  0  0  0  0  0
   -7.1734   -2.3783  -23.9205 C   0  0  0  0  0  0  0  0  0  0  0  0
   -7.1527   -1.0502  -24.6175 C   0  0  0  0  0  0  0  0  0  0  0  0
   -7.5466   -0.9550  -26.0617 N   0  0  0  0  0  0  0  0  0  0  0  0
   -7.9612   -2.1877  -26.8089 C   0  0  0  0  0  0  0  0  0  0  0  0
   -8.3551   -2.0924  -28.2531 O   0  0  0  0  0  0  0  0  0  0  0  0
   -7.9819   -3.5158  -26.1119 C   0  0  0  0  0  0  0  0  0  0  0  0
   -8.3965   -4.7486  -26.8591 C   0  0  0  0  0  0  0  0  0  0  0  0
   -8.4171   -6.0766  -26.1621 C   0  0  0  0  0  0  0  0  0  0  0  0
   -8.0232   -6.1719  -24.7179 C   0  0  0  0  0  0  0  0  0  0  0  0
   -8.0439   -7.5000  -24.0209 Cl  0  0  0  0  0  0  0  0  0  0  0  0
   -7.6086   -4.9392  -23.9707 C   0  0  0  0  0  0  0  0  0  0  0  0
   -7.5880   -3.6111  -24.6677 C   0  0  0  0  0  0  0  0  0  0  0  0
   -5.9751   -0.9936  -20.4981 C   0  0  0  0  0  0  0  0  0  0  0  0
   -6.7163   -1.0839  -19.1972 C   0  0  0  0  0  0  0  0  0  0  0  0
   -6.2499   -0.2919  -18.0118 N   0  0  0  0  0  0  0  0  0  0  0  0
   -5.0423    0.5903  -18.1274 C   0  0  0  0  0  0  0  0  0  0  0  0
   -4.3011    0.6806  -19.4283 C   0  0  0  0  0  0  0  0  0  0  0  0
   -3.0935    1.5629  -19.5439 C   0  0  0  0  0  0  0  0  0  0  0  0
   -2.3523    1.6531  -20.8449 C   0  0  0  0  0  0  0  0  0  0  0  0
   -2.8188    0.8611  -22.0302 C   0  0  0  0  0  0  0  0  0  0  0  0
   -4.0264   -0.0212  -21.9146 C   0  0  0  0  0  0  0  0  0  0  0  0
   -4.7675   -0.1114  -20.6138 C   0  0  0  0  0  0  0  0  0  0  0  0
   -7.5259    0.3732  -26.7587 C   0  0  0  0  0  0  0  0  0  0  0  0
   -6.2319    0.9295  -27.2743 C   0  0  0  0  0  0  0  0  0  0  0  0
   -4.9488    0.1911  -27.0326 N   0  0  0  0  0  0  0  0  0  0  0  0
   -4.5519   -0.9386  -27.9361 C   0  0  0  0  0  0  0  0  0  0  0  0
   -3.2688   -1.6769  -27.6944 C   0  0  0  0  0  0  0  0  0  0  0  0
   -2.3826   -1.2857  -26.5491 O   0  0  0  0  0  0  0  0  0  0  0  0
   -2.7795   -0.1561  -25.6456 C   0  0  0  0  0  0  0  0  0  0  0  0
   -4.0627    0.5823  -25.8873 C   0  0  0  0  0  0  0  0  0  0  0  0
   -4.0763   -0.3110  -26.8682 H   0  0  0  0  0  0  0  0  0  0  0  0
  2  1  1  0  0  0
  2  3  1  0  0  0
  3  4  1  0  0  0
  4 19  1  0  0  0
 19 20  2  0  0  0
 20 21  1  0  0  0
 21 22  2  0  0  0
 22 23  1  0  0  0
 23 24  2  0  0  0
 24 25  1  0  0  0
 25 26  2  0  0  0
 26 27  1  0  0  0
 27 28  2  0  0  0
  4  5  1  0  0  0
  5  6  2  0  0  0
  5  7  1  0  0  0
  7  8  1  0  0  0
  8  9  1  0  0  0
  9 29  1  0  0  0
 29 30  1  0  0  0
 30 31  1  0  0  0
 31 32  1  0  0  0
 32 33  1  0  0  0
 33 34  1  0  0  0
 34 35  1  0  0  0
 35 36  1  0  0  0
  9 10  1  0  0  0
 10 11  2  0  0  0
 10 12  1  0  0  0
 12 13  2  0  0  0
 13 14  1  0  0  0
 14 15  2  0  0  0
 15 16  1  0  0  0
 15 17  1  0  0  0
 17 18  2  0  0  0
  7  2  1  0  0  0
 36 31  1  0  0  0
 18 12  1  0  0  0
 28 19  1  0  0  0
 18  7  1  0  0  0
 28 23  1  0  0  0
 31 37  1  0  0  0
M  CHG 1  31   1
M  END
> <minimizedAffinity>
-7.36005

> <CNNscore>
0.2057175487

> <CNNaffinity>
5.8999814987

> <CNN_VS>
1.2137297392

> <CNNaffinity_variance>
0.1470339596

$$$$



 37 42  0  0  0  0  0  0  0  0999 V2000
  -10.6197   -2.0438  -24.3358 C   0  0  0  0  0  0  0  0  0  0  0  0
  -10.2550   -0.6324  -23.9822 C   0  0  0  0  0  0  0  0  0  0  0  0
  -11.4617    0.2543  -23.8938 C   0  0  0  0  0  0  0  0  0  0  0  0
  -10.9969    1.6354  -23.5378 N   0  0  0  0  0  0  0  0  0  0  0  0
   -9.5031    1.6022  -23.4063 C   0  0  0  0  0  0  0  0  0  0  0  0
   -8.6224    2.7662  -23.0608 O   0  0  0  0  0  0  0  0  0  0  0  0
   -9.0445    0.2007  -23.6810 C   0  0  0  0  0  0  0  0  0  0  0  0
   -7.9322    1.1549  -23.3614 C   0  0  0  0  0  0  0  0  0  0  0  0
   -6.5125    0.6713  -23.3388 N   0  0  0  0  0  0  0  0  0  0  0  0
   -6.2051   -0.7665  -23.6358 C   0  0  0  0  0  0  0  0  0  0  0  0
   -4.7854   -1.2501  -23.6131 O   0  0  0  0  0  0  0  0  0  0  0  0
   -7.3175   -1.7208  -23.9553 C   0  0  0  0  0  0  0  0  0  0  0  0
   -7.0101   -3.1586  -24.2523 C   0  0  0  0  0  0  0  0  0  0  0  0
   -8.1224   -4.1128  -24.5719 C   0  0  0  0  0  0  0  0  0  0  0  0
   -9.5421   -3.6292  -24.5945 C   0  0  0  0  0  0  0  0  0  0  0  0
  -10.6545   -4.5835  -24.9141 Cl  0  0  0  0  0  0  0  0  0  0  0  0
   -9.8495   -2.1914  -24.2975 C   0  0  0  0  0  0  0  0  0  0  0  0
   -8.7372   -1.2372  -23.9780 C   0  0  0  0  0  0  0  0  0  0  0  0
  -11.8723    2.8384  -23.3469 C   0  0  0  0  0  0  0  0  0  0  0  0
  -12.8327    2.8920  -22.1960 C   0  0  0  0  0  0  0  0  0  0  0  0
  -13.7081    4.0950  -22.0050 N   0  0  0  0  0  0  0  0  0  0  0  0
  -13.6230    5.2444  -22.9651 C   0  0  0  0  0  0  0  0  0  0  0  0
  -12.6626    5.1907  -24.1160 C   0  0  0  0  0  0  0  0  0  0  0  0
  -12.5776    6.3402  -25.0761 C   0  0  0  0  0  0  0  0  0  0  0  0
  -11.6171    6.2864  -26.2271 C   0  0  0  0  0  0  0  0  0  0  0  0
  -10.7418    5.0834  -26.4179 C   0  0  0  0  0  0  0  0  0  0  0  0
  -10.8269    3.9341  -25.4579 C   0  0  0  0  0  0  0  0  0  0  0  0
  -11.7872    3.9877  -24.3070 C   0  0  0  0  0  0  0  0  0  0  0  0
   -5.4001    1.6255  -23.0192 C   0  0  0  0  0  0  0  0  0  0  0  0
   -4.5887    1.4408  -21.7712 C   0  0  0  0  0  0  0  0  0  0  0  0
   -5.1826    0.7353  -20.5882 N   0  0  0  0  0  0  0  0  0  0  0  0
   -6.5009    0.0316  -20.7186 C   0  0  0  0  0  0  0  0  0  0  0  0
   -7.0948   -0.6738  -19.5356 C   0  0  0  0  0  0  0  0  0  0  0  0
   -6.3704   -0.6757  -18.2221 O   0  0  0  0  0  0  0  0  0  0  0  0
   -5.0522    0.0279  -18.0917 C   0  0  0  0  0  0  0  0  0  0  0  0
   -4.4582    0.7335  -19.2747 C   0  0  0  0  0  0  0  0  0  0  0  0
   -5.5865    0.2556  -19.7837 H   0  0  0  0  0  0  0  0  0  0  0  0
  2  1  1  0  0  0
  2  3  1  0  0  0
  3  4  1  0  0  0
  4 19  1  0  0  0
 19 20  2  0  0  0
 20 21  1  0  0  0
 21 22  2  0  0  0
 22 23  1  0  0  0
 23 24  2  0  0  0
 24 25  1  0  0  0
 25 26  2  0  0  0
 26 27  1  0  0  0
 27 28  2  0  0  0
  4  5  1  0  0  0
  5  6  2  0  0  0
  5  7  1  0  0  0
  7  8  1  0  0  0
  8  9  1  0  0  0
  9 29  1  0  0  0
 29 30  1  0  0  0
 30 31  1  0  0  0
 31 32  1  0  0  0
 32 33  1  0  0  0
 33 34  1  0  0  0
 34 35  1  0  0  0
 35 36  1  0  0  0
  9 10  1  0  0  0
 10 11  2  0  0  0
 10 12  1  0  0  0
 12 13  2  0  0  0
 13 14  1  0  0  0
 14 15  2  0  0  0
 15 16  1  0  0  0
 15 17  1  0  0  0
 17 18  2  0  0  0
  7  2  1  0  0  0
 36 31  1  0  0  0
 18 12  1  0  0  0
 28 19  1  0  0  0
 18  7  1  0  0  0
 28 23  1  0  0  0
 31 37  1  0  0  0
M  CHG 1  31   1
M  END
> <minimizedAffinity>
-8.09012

> <CNNscore>
0.1826650500

> <CNNaffinity>
6.1245608330

> <CNN_VS>
1.1187431812

> <CNNaffinity_variance>
0.1553633362

$$$$



 37 42  0  0  0  0  0  0  0  0999 V2000
  -11.4907   -1.6082  -23.2204 C   0  0  0  0  0  0  0  0  0  0  0  0
   -9.9917   -1.6562  -23.2491 C   0  0  0  0  0  0  0  0  0  0  0  0
   -9.4724   -3.0595  -23.1441 C   0  0  0  0  0  0  0  0  0  0  0  0
   -7.9739   -3.0033  -23.1813 N   0  0  0  0  0  0  0  0  0  0  0  0
   -7.5672   -1.5652  -23.3094 C   0  0  0  0  0  0  0  0  0  0  0  0
   -6.1603   -1.0500  -23.3827 O   0  0  0  0  0  0  0  0  0  0  0  0
   -8.8142   -0.7326  -23.3512 C   0  0  0  0  0  0  0  0  0  0  0  0
   -7.5461    0.0630  -23.4448 C   0  0  0  0  0  0  0  0  0  0  0  0
   -7.6052    1.5568  -23.5673 N   0  0  0  0  0  0  0  0  0  0  0  0
   -8.9325    2.2550  -23.5963 C   0  0  0  0  0  0  0  0  0  0  0  0
   -8.9916    3.7488  -23.7188 O   0  0  0  0  0  0  0  0  0  0  0  0
  -10.2007    1.4594  -23.5027 C   0  0  0  0  0  0  0  0  0  0  0  0
  -11.5279    2.1576  -23.5317 C   0  0  0  0  0  0  0  0  0  0  0  0
  -12.7961    1.3619  -23.4382 C   0  0  0  0  0  0  0  0  0  0  0  0
  -12.7369   -0.1319  -23.3157 C   0  0  0  0  0  0  0  0  0  0  0  0
  -14.0051   -0.9275  -23.2221 Cl  0  0  0  0  0  0  0  0  0  0  0  0
  -11.4097   -0.8301  -23.2867 C   0  0  0  0  0  0  0  0  0  0  0  0
  -10.1415   -0.0344  -23.3802 C   0  0  0  0  0  0  0  0  0  0  0  0
   -7.0453   -4.1787  -23.1041 C   0  0  0  0  0  0  0  0  0  0  0  0
   -6.3047   -4.4671  -21.8321 C   0  0  0  0  0  0  0  0  0  0  0  0
   -5.3761   -5.6425  -21.7549 N   0  0  0  0  0  0  0  0  0  0  0  0
   -5.1880   -6.5295  -22.9498 C   0  0  0  0  0  0  0  0  0  0  0  0
   -5.9286   -6.2410  -24.2219 C   0  0  0  0  0  0  0  0  0  0  0  0
   -5.7406   -7.1281  -25.4169 C   0  0  0  0  0  0  0  0  0  0  0  0
   -6.4812   -6.8396  -26.6890 C   0  0  0  0  0  0  0  0  0  0  0  0
   -7.4098   -5.6642  -26.7661 C   0  0  0  0  0  0  0  0  0  0  0  0
   -7.5978   -4.7772  -25.5712 C   0  0  0  0  0  0  0  0  0  0  0  0
   -6.8573   -5.0656  -24.2991 C   0  0  0  0  0  0  0  0  0  0  0  0
   -6.3370    2.3525  -23.6608 C   0  0  0  0  0  0  0  0  0  0  0  0
   -5.0153    1.6892  -23.4098 C   0  0  0  0  0  0  0  0  0  0  0  0
   -4.3253    1.8678  -22.0899 N   0  0  0  0  0  0  0  0  0  0  0  0
   -4.6564    0.9610  -20.9418 C   0  0  0  0  0  0  0  0  0  0  0  0
   -3.9664    1.1396  -19.6219 C   0  0  0  0  0  0  0  0  0  0  0  0
   -2.9453    2.2249  -19.4502 O   0  0  0  0  0  0  0  0  0  0  0  0
   -2.6143    3.1317  -20.5983 C   0  0  0  0  0  0  0  0  0  0  0  0
   -3.3042    2.9532  -21.9182 C   0  0  0  0  0  0  0  0  0  0  0  0
   -3.8561    1.9892  -21.1924 H   0  0  0  0  0  0  0  0  0  0  0  0
  2  1  1  0  0  0
  2  3  1  0  0  0
  3  4  1  0  0  0
  4 19  1  0  0  0
 19 20  2  0  0  0
 20 21  1  0  0  0
 21 22  2  0  0  0
 22 23  1  0  0  0
 23 24  2  0  0  0
 24 25  1  0  0  0
 25 26  2  0  0  0
 26 27  1  0  0  0
 27 28  2  0  0  0
  4  5  1  0  0  0
  5  6  2  0  0  0
  5  7  1  0  0  0
  7  8  1  0  0  0
  8  9  1  0  0  0
  9 29  1  0  0  0
 29 30  1  0  0  0
 30 31  1  0  0  0
 31 32  1  0  0  0
 32 33  1  0  0  0
 33 34  1  0  0  0
 34 35  1  0  0  0
 35 36  1  0  0  0
  9 10  1  0  0  0
 10 11  2  0  0  0
 10 12  1  0  0  0
 12 13  2  0  0  0
 13 14  1  0  0  0
 14 15  2  0  0  0
 15 16  1  0  0  0
 15 17  1  0  0  0
 17 18  2  0  0  0
  7  2  1  0  0  0
 36 31  1  0  0  0
 18 12  1  0  0  0
 28 19  1  0  0  0
 18  7  1  0  0  0
 28 23  1  0  0  0
 31 37  1  0  0  0
M  CHG 1  31   1
M  END
> <minimizedAffinity>
-8.41086

> <CNNscore>
0.1767875552

> <CNNaffinity>
6.0824446678

> <CNN_VS>
1.0753005743

> <CNNaffinity_variance>
0.3218490481

$$$$



 37 42  0  0  0  0  0  0  0  0999 V2000
  -10.0479   -1.6103  -24.0720 C   0  0  0  0  0  0  0  0  0  0  0  0
   -9.8512   -0.1298  -23.9322 C   0  0  0  0  0  0  0  0  0  0  0  0
  -11.1560    0.6040  -23.8387 C   0  0  0  0  0  0  0  0  0  0  0  0
  -10.8561    2.0674  -23.7024 N   0  0  0  0  0  0  0  0  0  0  0  0
   -9.3658    2.2379  -23.7117 C   0  0  0  0  0  0  0  0  0  0  0  0
   -8.6265    3.5382  -23.5988 O   0  0  0  0  0  0  0  0  0  0  0  0
   -8.7447    0.8800  -23.8537 C   0  0  0  0  0  0  0  0  0  0  0  0
   -7.7502    1.9992  -23.7628 C   0  0  0  0  0  0  0  0  0  0  0  0
   -6.2808    1.7030  -23.8168 N   0  0  0  0  0  0  0  0  0  0  0  0
   -5.8058    0.2876  -23.9619 C   0  0  0  0  0  0  0  0  0  0  0  0
   -4.3363   -0.0085  -24.0160 O   0  0  0  0  0  0  0  0  0  0  0  0
   -6.8003   -0.8316  -24.0529 C   0  0  0  0  0  0  0  0  0  0  0  0
   -6.3253   -2.2470  -24.1980 C   0  0  0  0  0  0  0  0  0  0  0  0
   -7.3198   -3.3662  -24.2890 C   0  0  0  0  0  0  0  0  0  0  0  0
   -8.7893   -3.0700  -24.2349 C   0  0  0  0  0  0  0  0  0  0  0  0
   -9.7838   -4.1893  -24.3259 Cl  0  0  0  0  0  0  0  0  0  0  0  0
   -9.2643   -1.6547  -24.0898 C   0  0  0  0  0  0  0  0  0  0  0  0
   -8.2698   -0.5355  -23.9988 C   0  0  0  0  0  0  0  0  0  0  0  0
  -11.8686    3.1672  -23.5785 C   0  0  0  0  0  0  0  0  0  0  0  0
  -12.7743    3.2217  -22.3841 C   0  0  0  0  0  0  0  0  0  0  0  0
  -13.7868    4.3215  -22.2602 N   0  0  0  0  0  0  0  0  0  0  0  0
  -13.8935    5.3667  -23.3308 C   0  0  0  0  0  0  0  0  0  0  0  0
  -12.9878    5.3121  -24.5252 C   0  0  0  0  0  0  0  0  0  0  0  0
  -13.0946    6.3574  -25.5958 C   0  0  0  0  0  0  0  0  0  0  0  0
  -12.1888    6.3028  -26.7902 C   0  0  0  0  0  0  0  0  0  0  0  0
  -11.1763    5.2030  -26.9140 C   0  0  0  0  0  0  0  0  0  0  0  0
  -11.0696    4.1578  -25.8435 C   0  0  0  0  0  0  0  0  0  0  0  0
  -11.9753    4.2124  -24.6491 C   0  0  0  0  0  0  0  0  0  0  0  0
   -5.2863    2.8223  -23.7258 C   0  0  0  0  0  0  0  0  0  0  0  0
   -5.0893    3.5469  -22.4273 C   0  0  0  0  0  0  0  0  0  0  0  0
   -4.0326    3.0895  -21.4661 N   0  0  0  0  0  0  0  0  0  0  0  0
   -2.7224    3.8159  -21.3904 C   0  0  0  0  0  0  0  0  0  0  0  0
   -1.6657    3.3585  -20.4291 C   0  0  0  0  0  0  0  0  0  0  0  0
   -1.9191    2.1747  -19.5434 O   0  0  0  0  0  0  0  0  0  0  0  0
   -3.2293    1.4483  -19.6191 C   0  0  0  0  0  0  0  0  0  0  0  0
   -4.2861    1.9057  -20.5804 C   0  0  0  0  0  0  0  0  0  0  0  0
   -3.3141    2.7784  -20.8124 H   0  0  0  0  0  0  0  0  0  0  0  0
  2  1  1  0  0  0
  2  3  1  0  0  0
  3  4  1  0  0  0
  4 19  1  0  0  0
 19 20  2  0  0  0
 20 21  1  0  0  0
 21 22  2  0  0  0
 22 23  1  0  0  0
 23 24  2  0  0  0
 24 25  1  0  0  0
 25 26  2  0  0  0
 26 27  1  0  0  0
 27 28  2  0  0  0
  4  5  1  0  0  0
  5  6  2  0  0  0
  5  7  1  0  0  0
  7  8  1  0  0  0
  8  9  1  0  0  0
  9 29  1  0  0  0
 29 30  1  0  0  0
 30 31  1  0  0  0
 31 32  1  0  0  0
 32 33  1  0  0  0
 33 34  1  0  0  0
 34 35  1  0  0  0
 35 36  1  0  0  0
  9 10  1  0  0  0
 10 11  2  0  0  0
 10 12  1  0  0  0
 12 13  2  0  0  0
 13 14  1  0  0  0
 14 15  2  0  0  0
 15 16  1  0  0  0
 15 17  1  0  0  0
 17 18  2  0  0  0
  7  2  1  0  0  0
 36 31  1  0  0  0
 18 12  1  0  0  0
 28 19  1  0  0  0
 18  7  1  0  0  0
 28 23  1  0  0  0
 31 37  1  0  0  0
M  CHG 1  31   1
M  END
> <minimizedAffinity>
-7.52983

> <CNNscore>
0.1717050076

> <CNNaffinity>
6.0192265511

> <CNN_VS>
1.0335313082

> <CNNaffinity_variance>
0.0650489777

$$$$



 37 42  0  0  0  0  0  0  0  0999 V2000
  -10.2631    1.9491  -22.8699 C   0  0  0  0  0  0  0  0  0  0  0  0
   -9.0678    1.0852  -22.5959 C   0  0  0  0  0  0  0  0  0  0  0  0
   -7.9000    1.8835  -22.0968 C   0  0  0  0  0  0  0  0  0  0  0  0
   -6.7618    0.9374  -21.8534 N   0  0  0  0  0  0  0  0  0  0  0  0
   -7.2261   -0.4457  -22.2020 C   0  0  0  0  0  0  0  0  0  0  0  0
   -6.4088   -1.6999  -22.1082 O   0  0  0  0  0  0  0  0  0  0  0  0
   -8.6513   -0.3543  -22.6609 C   0  0  0  0  0  0  0  0  0  0  0  0
   -8.0946   -1.7471  -22.6729 C   0  0  0  0  0  0  0  0  0  0  0  0
   -8.9526   -2.8940  -23.1186 N   0  0  0  0  0  0  0  0  0  0  0  0
  -10.3673   -2.6480  -23.5522 C   0  0  0  0  0  0  0  0  0  0  0  0
  -11.2253   -3.7948  -23.9979 O   0  0  0  0  0  0  0  0  0  0  0  0
  -10.9241   -1.2551  -23.5403 C   0  0  0  0  0  0  0  0  0  0  0  0
  -12.3387   -1.0092  -23.9739 C   0  0  0  0  0  0  0  0  0  0  0  0
  -12.8954    0.3836  -23.9619 C   0  0  0  0  0  0  0  0  0  0  0  0
  -12.0374    1.5304  -23.5163 C   0  0  0  0  0  0  0  0  0  0  0  0
  -12.5942    2.9233  -23.5043 Cl  0  0  0  0  0  0  0  0  0  0  0  0
  -10.6227    1.2845  -23.0826 C   0  0  0  0  0  0  0  0  0  0  0  0
  -10.0660   -0.1083  -23.0946 C   0  0  0  0  0  0  0  0  0  0  0  0
   -5.3987    1.3090  -21.3497 C   0  0  0  0  0  0  0  0  0  0  0  0
   -4.7111    0.4419  -20.3373 C   0  0  0  0  0  0  0  0  0  0  0  0
   -3.3479    0.8135  -19.8336 N   0  0  0  0  0  0  0  0  0  0  0  0
   -2.6724    2.0523  -20.3425 C   0  0  0  0  0  0  0  0  0  0  0  0
   -3.3600    2.9195  -21.3550 C   0  0  0  0  0  0  0  0  0  0  0  0
   -2.6844    4.1583  -21.8639 C   0  0  0  0  0  0  0  0  0  0  0  0
   -3.3721    5.0254  -22.8765 C   0  0  0  0  0  0  0  0  0  0  0  0
   -4.7352    4.6538  -23.3801 C   0  0  0  0  0  0  0  0  0  0  0  0
   -5.4107    3.4150  -22.8712 C   0  0  0  0  0  0  0  0  0  0  0  0
   -4.7232    2.5479  -21.8587 C   0  0  0  0  0  0  0  0  0  0  0  0
   -8.3959   -4.2868  -23.1306 C   0  0  0  0  0  0  0  0  0  0  0  0
   -7.2672   -4.6354  -24.0550 C   0  0  0  0  0  0  0  0  0  0  0  0
   -7.5265   -5.4711  -25.2733 N   0  0  0  0  0  0  0  0  0  0  0  0
   -6.4064   -5.7833  -26.2210 C   0  0  0  0  0  0  0  0  0  0  0  0
   -6.6657   -6.6190  -27.4393 C   0  0  0  0  0  0  0  0  0  0  0  0
   -8.0451   -7.1425  -27.7100 O   0  0  0  0  0  0  0  0  0  0  0  0
   -9.1651   -6.8304  -26.7624 C   0  0  0  0  0  0  0  0  0  0  0  0
   -8.9059   -5.9947  -25.5440 C   0  0  0  0  0  0  0  0  0  0  0  0
   -7.7028   -6.0394  -26.1018 H   0  0  0  0  0  0  0  0  0  0  0  0
  2  1  1  0  0  0
  2  3  1  0  0  0
  3  4  1  0  0  0
  4 19  1  0  0  0
 19 20  2  0  0  0
 20 21  1  0  0  0
 21 22  2  0  0  0
 22 23  1  0  0  0
 23 24  2  0  0  0
 24 25  1  0  0  0
 25 26  2  0  0  0
 26 27  1  0  0  0
 27 28  2  0  0  0
  4  5  1  0  0  0
  5  6  2  0  0  0
  5  7  1  0  0  0
  7  8  1  0  0  0
  8  9  1  0  0  0
  9 29  1  0  0  0
 29 30  1  0  0  0
 30 31  1  0  0  0
 31 32  1  0  0  0
 32 33  1  0  0  0
 33 34  1  0  0  0
 34 35  1  0  0  0
 35 36  1  0  0  0
  9 10  1  0  0  0
 10 11  2  0  0  0
 10 12  1  0  0  0
 12 13  2  0  0  0
 13 14  1  0  0  0
 14 15  2  0  0  0
 15 16  1  0  0  0
 15 17  1  0  0  0
 17 18  2  0  0  0
  7  2  1  0  0  0
 36 31  1  0  0  0
 18 12  1  0  0  0
 28 19  1  0  0  0
 18  7  1  0  0  0
 28 23  1  0  0  0
 31 37  1  0  0  0
M  CHG 1  31   1
M  END
> <minimizedAffinity>
-7.97583

> <CNNscore>
0.1584226191

> <CNNaffinity>
6.0820236206

> <CNN_VS>
0.9635301232

> <CNNaffinity_variance>
0.2004069835

$$$$



 37 42  0  0  0  0  0  0  0  0999 V2000
   -9.9278   -4.1177  -25.0414 C   0  0  0  0  0  0  0  0  0  0  0  0
   -9.7786   -2.8868  -24.1970 C   0  0  0  0  0  0  0  0  0  0  0  0
  -10.8279   -1.8612  -24.5085 C   0  0  0  0  0  0  0  0  0  0  0  0
  -10.5960   -0.6759  -23.6190 N   0  0  0  0  0  0  0  0  0  0  0  0
   -9.4033   -0.9690  -22.7578 C   0  0  0  0  0  0  0  0  0  0  0  0
   -8.8184   -0.0558  -21.7214 O   0  0  0  0  0  0  0  0  0  0  0  0
   -8.8981   -2.3354  -23.1151 C   0  0  0  0  0  0  0  0  0  0  0  0
   -8.1078   -1.6555  -22.0366 C   0  0  0  0  0  0  0  0  0  0  0  0
   -6.9291   -2.3488  -21.4201 N   0  0  0  0  0  0  0  0  0  0  0  0
   -6.5406   -3.7219  -21.8822 C   0  0  0  0  0  0  0  0  0  0  0  0
   -5.3619   -4.4151  -21.2657 O   0  0  0  0  0  0  0  0  0  0  0  0
   -7.3309   -4.4019  -22.9607 C   0  0  0  0  0  0  0  0  0  0  0  0
   -6.9424   -5.7750  -23.4228 C   0  0  0  0  0  0  0  0  0  0  0  0
   -7.7326   -6.4549  -24.5013 C   0  0  0  0  0  0  0  0  0  0  0  0
   -8.9113   -5.7616  -25.1178 C   0  0  0  0  0  0  0  0  0  0  0  0
   -9.7016   -6.4416  -26.1963 Cl  0  0  0  0  0  0  0  0  0  0  0  0
   -9.2998   -4.3885  -24.6557 C   0  0  0  0  0  0  0  0  0  0  0  0
   -8.5096   -3.7086  -23.5772 C   0  0  0  0  0  0  0  0  0  0  0  0
  -11.4132    0.5817  -23.5949 C   0  0  0  0  0  0  0  0  0  0  0  0
  -12.8291    0.5467  -23.1009 C   0  0  0  0  0  0  0  0  0  0  0  0
  -13.6463    1.8042  -23.0768 N   0  0  0  0  0  0  0  0  0  0  0  0
  -13.0476    3.0968  -23.5467 C   0  0  0  0  0  0  0  0  0  0  0  0
  -11.6317    3.1318  -24.0406 C   0  0  0  0  0  0  0  0  0  0  0  0
  -11.0330    4.4245  -24.5105 C   0  0  0  0  0  0  0  0  0  0  0  0
   -9.6171    4.4594  -25.0044 C   0  0  0  0  0  0  0  0  0  0  0  0
   -8.7999    3.2019  -25.0285 C   0  0  0  0  0  0  0  0  0  0  0  0
   -9.3986    1.9093  -24.5586 C   0  0  0  0  0  0  0  0  0  0  0  0
  -10.8145    1.8743  -24.0647 C   0  0  0  0  0  0  0  0  0  0  0  0
   -6.1389   -1.6688  -20.3415 C   0  0  0  0  0  0  0  0  0  0  0  0
   -6.3510   -0.2104  -20.0625 C   0  0  0  0  0  0  0  0  0  0  0  0
   -5.2581    0.7753  -20.3522 N   0  0  0  0  0  0  0  0  0  0  0  0
   -5.3513    1.6663  -21.5554 C   0  0  0  0  0  0  0  0  0  0  0  0
   -4.2584    2.6520  -21.8451 C   0  0  0  0  0  0  0  0  0  0  0  0
   -3.0724    2.7468  -20.9317 O   0  0  0  0  0  0  0  0  0  0  0  0
   -2.9792    1.8559  -19.7285 C   0  0  0  0  0  0  0  0  0  0  0  0
   -4.0721    0.8702  -19.4388 C   0  0  0  0  0  0  0  0  0  0  0  0
   -4.5150    1.4456  -20.5492 H   0  0  0  0  0  0  0  0  0  0  0  0
  2  1  1  0  0  0
  2  3  1  0  0  0
  3  4  1  0  0  0
  4 19  1  0  0  0
 19 20  2  0  0  0
 20 21  1  0  0  0
 21 22  2  0  0  0
 22 23  1  0  0  0
 23 24  2  0  0  0
 24 25  1  0  0  0
 25 26  2  0  0  0
 26 27  1  0  0  0
 27 28  2  0  0  0
  4  5  1  0  0  0
  5  6  2  0  0  0
  5  7  1  0  0  0
  7  8  1  0  0  0
  8  9  1  0  0  0
  9 29  1  0  0  0
 29 30  1  0  0  0
 30 31  1  0  0  0
 31 32  1  0  0  0
 32 33  1  0  0  0
 33 34  1  0  0  0
 34 35  1  0  0  0
 35 36  1  0  0  0
  9 10  1  0  0  0
 10 11  2  0  0  0
 10 12  1  0  0  0
 12 13  2  0  0  0
 13 14  1  0  0  0
 14 15  2  0  0  0
 15 16  1  0  0  0
 15 17  1  0  0  0
 17 18  2  0  0  0
  7  2  1  0  0  0
 36 31  1  0  0  0
 18 12  1  0  0  0
 28 19  1  0  0  0
 18  7  1  0  0  0
 28 23  1  0  0  0
 31 37  1  0  0  0
M  CHG 1  31   1
M  END
> <minimizedAffinity>
-8.65275

> <CNNscore>
0.1505281329

> <CNNaffinity>
6.1578435898

> <CNN_VS>
0.9269286990

> <CNNaffinity_variance>
0.0877405256

$$$$
