


 42 47  0  0  0  0  0  0  0  0999 V2000
   -7.5038   -1.3984  -23.7977 N   0  0  0  0  0  0  0  0  0  0  0  0
   -7.8721    0.0512  -23.9118 C   0  0  0  0  0  0  0  0  0  0  0  0
   -9.3004    0.4776  -23.7444 C   0  0  0  0  0  0  0  0  0  0  0  0
  -10.6792    1.0509  -23.6018 C   0  0  0  0  0  0  0  0  0  0  0  0
  -11.8193    0.6906  -23.3858 O   0  0  0  0  0  0  0  0  0  0  0  0
  -10.5855    2.5360  -23.7904 N   0  0  0  0  0  0  0  0  0  0  0  0
   -9.1488    2.8806  -24.0496 C   0  0  0  0  0  0  0  0  0  0  0  0
   -8.3546    1.6084  -24.0212 C   0  0  0  0  0  0  0  0  0  0  0  0
  -10.3605   -0.5457  -23.4628 C   0  0  0  0  0  0  0  0  0  0  0  0
  -11.7888   -0.1193  -23.2954 C   0  0  0  0  0  0  0  0  0  0  0  0
  -12.8489   -1.1425  -23.0139 C   0  0  0  0  0  0  0  0  0  0  0  0
  -14.2773   -0.7161  -22.8464 Cl  0  0  0  0  0  0  0  0  0  0  0  0
  -12.4806   -2.5921  -22.8998 C   0  0  0  0  0  0  0  0  0  0  0  0
  -11.0523   -3.0185  -23.0672 C   0  0  0  0  0  0  0  0  0  0  0  0
   -9.9923   -1.9953  -23.3487 C   0  0  0  0  0  0  0  0  0  0  0  0
   -8.5638   -2.4216  -23.5162 C   0  0  0  0  0  0  0  0  0  0  0  0
   -8.1956   -3.8712  -23.4021 O   0  0  0  0  0  0  0  0  0  0  0  0
  -11.7279    3.5062  -23.7303 C   0  0  0  0  0  0  0  0  0  0  0  0
  -12.5645    3.6039  -22.4891 C   0  0  0  0  0  0  0  0  0  0  0  0
  -13.7069    4.5740  -22.4290 N   0  0  0  0  0  0  0  0  0  0  0  0
  -14.0127    5.4466  -23.6102 C   0  0  0  0  0  0  0  0  0  0  0  0
  -13.1761    5.3489  -24.8514 C   0  0  0  0  0  0  0  0  0  0  0  0
  -13.4820    6.2215  -26.0326 C   0  0  0  0  0  0  0  0  0  0  0  0
  -12.6453    6.1238  -27.2737 C   0  0  0  0  0  0  0  0  0  0  0  0
  -11.5029    5.1536  -27.3338 C   0  0  0  0  0  0  0  0  0  0  0  0
  -11.1971    4.2811  -26.1527 C   0  0  0  0  0  0  0  0  0  0  0  0
  -12.0337    4.3787  -24.9115 C   0  0  0  0  0  0  0  0  0  0  0  0
   -6.0754   -1.8248  -23.9652 C   0  0  0  0  0  0  0  0  0  0  0  0
   -4.1314   -3.7635  -26.8309 C   0  0  0  0  0  0  0  0  0  0  0  0
   -4.6467   -3.3841  -25.4742 N   0  0  0  0  0  0  0  0  0  0  0  0
   -5.5601   -2.2041  -25.3218 C   0  0  0  0  0  0  0  0  0  0  0  0
   -5.9581   -1.4033  -26.5262 O   0  0  0  0  0  0  0  0  0  0  0  0
   -4.3855   -3.9097  -24.6838 H   0  0  0  0  0  0  0  0  0  0  0  0
   -6.8744    1.4882  -24.2324 C   0  0  0  0  0  0  0  0  0  0  0  0
   -5.9458    2.4980  -23.6261 N   0  0  0  0  0  0  0  0  0  0  0  0
   -5.8039    3.3652  -24.0700 H   0  0  0  0  0  0  0  0  0  0  0  0
   -5.2333    2.1867  -22.3433 C   0  0  0  0  0  0  0  0  0  0  0  0
   -4.0020    2.8724  -21.8298 C   0  0  0  0  0  0  0  0  0  0  0  0
   -3.6348    2.2444  -20.5180 N   0  0  0  0  0  0  0  0  0  0  0  0
   -4.6391    1.1706  -20.2208 N   0  0  0  0  0  0  0  0  0  0  0  0
   -4.6530    0.2875  -19.0084 C   0  0  0  0  0  0  0  0  0  0  0  0
   -5.6270    1.1349  -21.3490 C   0  0  0  0  0  0  0  0  0  0  0  0
 29 30  1  0  0  0
 30 31  1  0  0  0
 31 32  2  0  0  0
 31 28  1  0  0  0
 28  1  1  0  0  0
  1  2  1  0  0  0
  3  2  1  0  0  0
  3  4  1  0  0  0
  4  5  2  0  0  0
  4  6  1  0  0  0
  6 18  1  0  0  0
 18 19  2  0  0  0
 19 20  1  0  0  0
 20 21  2  0  0  0
 21 22  1  0  0  0
 22 23  2  0  0  0
 23 24  1  0  0  0
 24 25  2  0  0  0
 25 26  1  0  0  0
 26 27  2  0  0  0
  6  7  1  0  0  0
  7  8  1  0  0  0
  8 34  1  0  0  0
 34 35  1  0  0  0
 35 37  1  0  0  0
 37 38  1  0  0  0
 38 39  2  0  0  0
 39 40  1  0  0  0
 40 41  1  0  0  0
 40 42  1  0  0  0
  3  9  1  0  0  0
  9 10  2  0  0  0
 10 11  1  0  0  0
 11 12  1  0  0  0
 11 13  2  0  0  0
 13 14  1  0  0  0
 14 15  2  0  0  0
 15 16  1  0  0  0
 16 17  2  0  0  0
 16  1  1  0  0  0
  8  3  1  0  0  0
 42 37  2  0  0  0
 15  9  1  0  0  0
 27 18  1  0  0  0
 27 22  1  0  0  0
 30 33  1  0  0  0
 35 36  1  0  0  0
M  END
> <minimizedAffinity>
-7.71461

> <CNNscore>
0.6433006525

> <CNNaffinity>
6.9893608093

> <CNN_VS>
4.4962601662

> <CNNaffinity_variance>
0.0605407171

$$$$



 42 47  0  0  0  0  0  0  0  0999 V2000
   -7.2588   -1.1079  -22.3607 N   0  0  0  0  0  0  0  0  0  0  0  0
   -7.4657    0.3195  -22.7729 C   0  0  0  0  0  0  0  0  0  0  0  0
   -8.8410    0.8087  -23.1180 C   0  0  0  0  0  0  0  0  0  0  0  0
  -10.1508    1.4380  -23.4901 C   0  0  0  0  0  0  0  0  0  0  0  0
  -11.3259    1.1480  -23.5965 O   0  0  0  0  0  0  0  0  0  0  0  0
   -9.8937    2.8756  -23.8325 N   0  0  0  0  0  0  0  0  0  0  0  0
   -8.4250    3.1348  -23.6720 C   0  0  0  0  0  0  0  0  0  0  0  0
   -7.7744    1.8574  -23.2304 C   0  0  0  0  0  0  0  0  0  0  0  0
  -10.0096   -0.1294  -23.0509 C   0  0  0  0  0  0  0  0  0  0  0  0
  -11.3849    0.3598  -23.3959 C   0  0  0  0  0  0  0  0  0  0  0  0
  -12.5534   -0.5784  -23.3289 C   0  0  0  0  0  0  0  0  0  0  0  0
  -13.9288   -0.0892  -23.6739 Cl  0  0  0  0  0  0  0  0  0  0  0  0
  -12.3465   -2.0057  -22.9167 C   0  0  0  0  0  0  0  0  0  0  0  0
  -10.9712   -2.4949  -22.5716 C   0  0  0  0  0  0  0  0  0  0  0  0
   -9.8027   -1.5568  -22.6387 C   0  0  0  0  0  0  0  0  0  0  0  0
   -8.4273   -2.0460  -22.2936 C   0  0  0  0  0  0  0  0  0  0  0  0
   -8.2205   -3.4733  -21.8815 O   0  0  0  0  0  0  0  0  0  0  0  0
  -10.9243    3.8780  -24.2602 C   0  0  0  0  0  0  0  0  0  0  0  0
  -11.8676    4.4615  -23.2504 C   0  0  0  0  0  0  0  0  0  0  0  0
  -12.8982    5.4639  -23.6781 N   0  0  0  0  0  0  0  0  0  0  0  0
  -12.9856    5.8827  -25.1158 C   0  0  0  0  0  0  0  0  0  0  0  0
  -12.0424    5.2992  -26.1257 C   0  0  0  0  0  0  0  0  0  0  0  0
  -12.1298    5.7181  -27.5634 C   0  0  0  0  0  0  0  0  0  0  0  0
  -11.1866    5.1346  -28.5732 C   0  0  0  0  0  0  0  0  0  0  0  0
  -10.1559    4.1322  -28.1454 C   0  0  0  0  0  0  0  0  0  0  0  0
  -10.0685    3.7133  -26.7078 C   0  0  0  0  0  0  0  0  0  0  0  0
  -11.0117    4.2969  -25.6979 C   0  0  0  0  0  0  0  0  0  0  0  0
   -5.8834   -1.5971  -22.0156 C   0  0  0  0  0  0  0  0  0  0  0  0
   -5.5556   -5.5521  -22.0333 C   0  0  0  0  0  0  0  0  0  0  0  0
   -5.7528   -4.1440  -22.5114 N   0  0  0  0  0  0  0  0  0  0  0  0
   -5.6862   -3.0051  -21.5376 C   0  0  0  0  0  0  0  0  0  0  0  0
   -5.4225   -3.2742  -20.0856 O   0  0  0  0  0  0  0  0  0  0  0  0
   -5.9259   -3.9674  -23.4643 H   0  0  0  0  0  0  0  0  0  0  0  0
   -6.3137    1.6629  -22.9504 C   0  0  0  0  0  0  0  0  0  0  0  0
   -5.5690    2.6659  -22.1203 N   0  0  0  0  0  0  0  0  0  0  0  0
   -5.8278    3.6155  -22.1461 H   0  0  0  0  0  0  0  0  0  0  0  0
   -4.4300    2.2225  -21.2508 C   0  0  0  0  0  0  0  0  0  0  0  0
   -4.5245    1.2836  -20.0849 C   0  0  0  0  0  0  0  0  0  0  0  0
   -3.1494    1.1209  -19.5082 N   0  0  0  0  0  0  0  0  0  0  0  0
   -2.2050    1.9592  -20.3177 N   0  0  0  0  0  0  0  0  0  0  0  0
   -0.7284    2.0932  -20.0902 C   0  0  0  0  0  0  0  0  0  0  0  0
   -2.9965    2.6400  -21.3948 C   0  0  0  0  0  0  0  0  0  0  0  0
 29 30  1  0  0  0
 30 31  1  0  0  0
 31 32  2  0  0  0
 31 28  1  0  0  0
 28  1  1  0  0  0
  1  2  1  0  0  0
  3  2  1  0  0  0
  3  4  1  0  0  0
  4  5  2  0  0  0
  4  6  1  0  0  0
  6 18  1  0  0  0
 18 19  2  0  0  0
 19 20  1  0  0  0
 20 21  2  0  0  0
 21 22  1  0  0  0
 22 23  2  0  0  0
 23 24  1  0  0  0
 24 25  2  0  0  0
 25 26  1  0  0  0
 26 27  2  0  0  0
  6  7  1  0  0  0
  7  8  1  0  0  0
  8 34  1  0  0  0
 34 35  1  0  0  0
 35 37  1  0  0  0
 37 38  1  0  0  0
 38 39  2  0  0  0
 39 40  1  0  0  0
 40 41  1  0  0  0
 40 42  1  0  0  0
  3  9  1  0  0  0
  9 10  2  0  0  0
 10 11  1  0  0  0
 11 12  1  0  0  0
 11 13  2  0  0  0
 13 14  1  0  0  0
 14 15  2  0  0  0
 15 16  1  0  0  0
 16 17  2  0  0  0
 16  1  1  0  0  0
  8  3  1  0  0  0
 42 37  2  0  0  0
 15  9  1  0  0  0
 27 18  1  0  0  0
 27 22  1  0  0  0
 30 33  1  0  0  0
 35 36  1  0  0  0
M  END
> <minimizedAffinity>
-7.93522

> <CNNscore>
0.3928083777

> <CNNaffinity>
6.7677125931

> <CNN_VS>
2.6584141254

> <CNNaffinity_variance>
0.0438397452

$$$$



 42 47  0  0  0  0  0  0  0  0999 V2000
   -7.4404   -1.7691  -23.0136 N   0  0  0  0  0  0  0  0  0  0  0  0
   -7.4525   -0.4020  -23.6308 C   0  0  0  0  0  0  0  0  0  0  0  0
   -8.7569    0.2881  -23.8993 C   0  0  0  0  0  0  0  0  0  0  0  0
   -9.9769    1.0978  -24.2248 C   0  0  0  0  0  0  0  0  0  0  0  0
  -11.1877    1.0267  -24.1526 O   0  0  0  0  0  0  0  0  0  0  0  0
   -9.5252    2.3957  -24.8259 N   0  0  0  0  0  0  0  0  0  0  0  0
   -8.0259    2.3881  -24.8721 C   0  0  0  0  0  0  0  0  0  0  0  0
   -7.5511    1.0856  -24.2994 C   0  0  0  0  0  0  0  0  0  0  0  0
  -10.0493   -0.3889  -23.5508 C   0  0  0  0  0  0  0  0  0  0  0  0
  -11.3537    0.3012  -23.8194 C   0  0  0  0  0  0  0  0  0  0  0  0
  -12.6460   -0.3759  -23.4708 C   0  0  0  0  0  0  0  0  0  0  0  0
  -13.9506    0.3143  -23.7394 Cl  0  0  0  0  0  0  0  0  0  0  0  0
  -12.6339   -1.7430  -22.8537 C   0  0  0  0  0  0  0  0  0  0  0  0
  -11.3295   -2.4331  -22.5851 C   0  0  0  0  0  0  0  0  0  0  0  0
  -10.0372   -1.7561  -22.9337 C   0  0  0  0  0  0  0  0  0  0  0  0
   -8.7327   -2.4462  -22.6651 C   0  0  0  0  0  0  0  0  0  0  0  0
   -8.7206   -3.8133  -22.0479 O   0  0  0  0  0  0  0  0  0  0  0  0
  -10.4162    3.5061  -25.2981 C   0  0  0  0  0  0  0  0  0  0  0  0
  -10.2449    4.0703  -26.6773 C   0  0  0  0  0  0  0  0  0  0  0  0
  -11.1360    5.1807  -27.1495 N   0  0  0  0  0  0  0  0  0  0  0  0
  -12.1984    5.7270  -26.2423 C   0  0  0  0  0  0  0  0  0  0  0  0
  -12.3697    5.1628  -24.8631 C   0  0  0  0  0  0  0  0  0  0  0  0
  -13.4322    5.7091  -23.9559 C   0  0  0  0  0  0  0  0  0  0  0  0
  -13.6034    5.1448  -22.5767 C   0  0  0  0  0  0  0  0  0  0  0  0
  -12.7123    4.0343  -22.1045 C   0  0  0  0  0  0  0  0  0  0  0  0
  -11.6499    3.4881  -23.0117 C   0  0  0  0  0  0  0  0  0  0  0  0
  -11.4786    4.0523  -24.3909 C   0  0  0  0  0  0  0  0  0  0  0  0
   -6.1358   -2.4592  -22.7450 C   0  0  0  0  0  0  0  0  0  0  0  0
   -5.5281   -6.3560  -22.3022 C   0  0  0  0  0  0  0  0  0  0  0  0
   -5.6874   -4.9003  -21.9770 N   0  0  0  0  0  0  0  0  0  0  0  0
   -5.9765   -3.9149  -23.0703 C   0  0  0  0  0  0  0  0  0  0  0  0
   -6.1063   -4.3850  -24.4888 O   0  0  0  0  0  0  0  0  0  0  0  0
   -5.6022   -4.5918  -21.0460 H   0  0  0  0  0  0  0  0  0  0  0  0
   -6.1214    0.6559  -24.1526 C   0  0  0  0  0  0  0  0  0  0  0  0
   -5.1233    1.5765  -23.5155 N   0  0  0  0  0  0  0  0  0  0  0  0
   -4.8139    2.3769  -23.9979 H   0  0  0  0  0  0  0  0  0  0  0  0
   -4.5965    1.2776  -22.1432 C   0  0  0  0  0  0  0  0  0  0  0  0
   -3.1598    1.3427  -21.7168 C   0  0  0  0  0  0  0  0  0  0  0  0
   -3.0893    0.9664  -20.2665 N   0  0  0  0  0  0  0  0  0  0  0  0
   -4.4824    0.6687  -19.7965 N   0  0  0  0  0  0  0  0  0  0  0  0
   -4.8750    0.2519  -18.4101 C   0  0  0  0  0  0  0  0  0  0  0  0
   -5.4138    0.8610  -20.9564 C   0  0  0  0  0  0  0  0  0  0  0  0
 29 30  1  0  0  0
 30 31  1  0  0  0
 31 32  2  0  0  0
 31 28  1  0  0  0
 28  1  1  0  0  0
  1  2  1  0  0  0
  3  2  1  0  0  0
  3  4  1  0  0  0
  4  5  2  0  0  0
  4  6  1  0  0  0
  6 18  1  0  0  0
 18 19  2  0  0  0
 19 20  1  0  0  0
 20 21  2  0  0  0
 21 22  1  0  0  0
 22 23  2  0  0  0
 23 24  1  0  0  0
 24 25  2  0  0  0
 25 26  1  0  0  0
 26 27  2  0  0  0
  6  7  1  0  0  0
  7  8  1  0  0  0
  8 34  1  0  0  0
 34 35  1  0  0  0
 35 37  1  0  0  0
 37 38  1  0  0  0
 38 39  2  0  0  0
 39 40  1  0  0  0
 40 41  1  0  0  0
 40 42  1  0  0  0
  3  9  1  0  0  0
  9 10  2  0  0  0
 10 11  1  0  0  0
 11 12  1  0  0  0
 11 13  2  0  0  0
 13 14  1  0  0  0
 14 15  2  0  0  0
 15 16  1  0  0  0
 16 17  2  0  0  0
 16  1  1  0  0  0
  8  3  1  0  0  0
 42 37  2  0  0  0
 15  9  1  0  0  0
 27 18  1  0  0  0
 27 22  1  0  0  0
 30 33  1  0  0  0
 35 36  1  0  0  0
M  END
> <minimizedAffinity>
-7.52172

> <CNNscore>
0.3706824183

> <CNNaffinity>
6.7226486206

> <CNN_VS>
2.4919676781

> <CNNaffinity_variance>
0.2601681352

$$$$



 42 47  0  0  0  0  0  0  0  0999 V2000
   -6.9164   -1.1279  -22.3117 N   0  0  0  0  0  0  0  0  0  0  0  0
   -7.0401    0.2217  -22.9545 C   0  0  0  0  0  0  0  0  0  0  0  0
   -8.3640    0.6778  -23.4921 C   0  0  0  0  0  0  0  0  0  0  0  0
   -9.6158    1.2669  -24.0719 C   0  0  0  0  0  0  0  0  0  0  0  0
  -10.7865    0.9866  -24.2373 O   0  0  0  0  0  0  0  0  0  0  0  0
   -9.2831    2.6285  -24.6061 N   0  0  0  0  0  0  0  0  0  0  0  0
   -7.8258    2.8810  -24.3565 C   0  0  0  0  0  0  0  0  0  0  0  0
   -7.2577    1.6754  -23.6680 C   0  0  0  0  0  0  0  0  0  0  0  0
   -9.5644   -0.2157  -23.3869 C   0  0  0  0  0  0  0  0  0  0  0  0
  -10.8883    0.2405  -23.9245 C   0  0  0  0  0  0  0  0  0  0  0  0
  -12.0885   -0.6530  -23.8192 C   0  0  0  0  0  0  0  0  0  0  0  0
  -13.4126   -0.1969  -24.3568 Cl  0  0  0  0  0  0  0  0  0  0  0  0
  -11.9648   -2.0026  -23.1764 C   0  0  0  0  0  0  0  0  0  0  0  0
  -10.6408   -2.4588  -22.6388 C   0  0  0  0  0  0  0  0  0  0  0  0
   -9.4406   -1.5653  -22.7441 C   0  0  0  0  0  0  0  0  0  0  0  0
   -8.1166   -2.0214  -22.2065 C   0  0  0  0  0  0  0  0  0  0  0  0
   -7.9928   -3.3710  -21.5637 O   0  0  0  0  0  0  0  0  0  0  0  0
  -10.2399    3.5719  -25.2729 C   0  0  0  0  0  0  0  0  0  0  0  0
  -10.0639    3.9190  -26.7216 C   0  0  0  0  0  0  0  0  0  0  0  0
  -11.0206    4.8625  -27.3883 N   0  0  0  0  0  0  0  0  0  0  0  0
  -12.1534    5.4587  -26.6064 C   0  0  0  0  0  0  0  0  0  0  0  0
  -12.3293    5.1116  -25.1578 C   0  0  0  0  0  0  0  0  0  0  0  0
  -13.4621    5.7079  -24.3759 C   0  0  0  0  0  0  0  0  0  0  0  0
  -13.6380    5.3607  -22.9272 C   0  0  0  0  0  0  0  0  0  0  0  0
  -12.6813    4.4173  -22.2605 C   0  0  0  0  0  0  0  0  0  0  0  0
  -11.5486    3.8210  -23.0424 C   0  0  0  0  0  0  0  0  0  0  0  0
  -11.3726    4.1682  -24.4910 C   0  0  0  0  0  0  0  0  0  0  0  0
   -5.5923   -1.5841  -21.7741 C   0  0  0  0  0  0  0  0  0  0  0  0
   -5.1441   -0.2993  -18.0461 C   0  0  0  0  0  0  0  0  0  0  0  0
   -5.3928   -0.2984  -19.5253 N   0  0  0  0  0  0  0  0  0  0  0  0
   -5.3435   -1.5849  -20.2949 C   0  0  0  0  0  0  0  0  0  0  0  0
   -5.0454   -2.8725  -19.5853 O   0  0  0  0  0  0  0  0  0  0  0  0
   -5.5885    0.5466  -19.9911 H   0  0  0  0  0  0  0  0  0  0  0  0
   -5.8335    1.4985  -23.2320 C   0  0  0  0  0  0  0  0  0  0  0  0
   -5.1979    2.5051  -22.3195 N   0  0  0  0  0  0  0  0  0  0  0  0
   -5.6965    3.3107  -22.0518 H   0  0  0  0  0  0  0  0  0  0  0  0
   -3.8027    2.2843  -21.8148 C   0  0  0  0  0  0  0  0  0  0  0  0
   -3.0508    0.9866  -21.8405 C   0  0  0  0  0  0  0  0  0  0  0  0
   -1.6979    1.2228  -21.2374 N   0  0  0  0  0  0  0  0  0  0  0  0
   -1.6136    2.6665  -20.8390 N   0  0  0  0  0  0  0  0  0  0  0  0
   -0.4353    3.3365  -20.1965 C   0  0  0  0  0  0  0  0  0  0  0  0
   -2.9144    3.3225  -21.1959 C   0  0  0  0  0  0  0  0  0  0  0  0
 29 30  1  0  0  0
 30 31  1  0  0  0
 31 32  2  0  0  0
 31 28  1  0  0  0
 28  1  1  0  0  0
  1  2  1  0  0  0
  3  2  1  0  0  0
  3  4  1  0  0  0
  4  5  2  0  0  0
  4  6  1  0  0  0
  6 18  1  0  0  0
 18 19  2  0  0  0
 19 20  1  0  0  0
 20 21  2  0  0  0
 21 22  1  0  0  0
 22 23  2  0  0  0
 23 24  1  0  0  0
 24 25  2  0  0  0
 25 26  1  0  0  0
 26 27  2  0  0  0
  6  7  1  0  0  0
  7  8  1  0  0  0
  8 34  1  0  0  0
 34 35  1  0  0  0
 35 37  1  0  0  0
 37 38  1  0  0  0
 38 39  2  0  0  0
 39 40  1  0  0  0
 40 41  1  0  0  0
 40 42  1  0  0  0
  3  9  1  0  0  0
  9 10  2  0  0  0
 10 11  1  0  0  0
 11 12  1  0  0  0
 11 13  2  0  0  0
 13 14  1  0  0  0
 14 15  2  0  0  0
 15 16  1  0  0  0
 16 17  2  0  0  0
 16  1  1  0  0  0
  8  3  1  0  0  0
 42 37  2  0  0  0
 15  9  1  0  0  0
 27 18  1  0  0  0
 27 22  1  0  0  0
 30 33  1  0  0  0
 35 36  1  0  0  0
M  END
> <minimizedAffinity>
-7.71970

> <CNNscore>
0.3352110982

> <CNNaffinity>
6.4580764771

> <CNN_VS>
2.1648190022

> <CNNaffinity_variance>
0.1046561450

$$$$



 42 47  0  0  0  0  0  0  0  0999 V2000
   -8.0776    2.3729  -24.0383 N   0  0  0  0  0  0  0  0  0  0  0  0
   -7.2728    1.1073  -24.0650 C   0  0  0  0  0  0  0  0  0  0  0  0
   -7.9513   -0.2170  -23.8759 C   0  0  0  0  0  0  0  0  0  0  0  0
   -8.4880   -1.6069  -23.7024 C   0  0  0  0  0  0  0  0  0  0  0  0
   -9.5420   -2.1807  -23.5119 O   0  0  0  0  0  0  0  0  0  0  0  0
   -7.3370   -2.5638  -23.8000 N   0  0  0  0  0  0  0  0  0  0  0  0
   -6.0889   -1.7653  -24.0339 C   0  0  0  0  0  0  0  0  0  0  0  0
   -6.4686   -0.3149  -24.0807 C   0  0  0  0  0  0  0  0  0  0  0  0
   -9.4346   -0.2757  -23.6600 C   0  0  0  0  0  0  0  0  0  0  0  0
  -10.1131   -1.6001  -23.4709 C   0  0  0  0  0  0  0  0  0  0  0  0
  -11.5963   -1.6588  -23.2550 C   0  0  0  0  0  0  0  0  0  0  0  0
  -12.2748   -2.9831  -23.0659 Cl  0  0  0  0  0  0  0  0  0  0  0  0
  -12.4010   -0.3932  -23.2283 C   0  0  0  0  0  0  0  0  0  0  0  0
  -11.7225    0.9311  -23.4175 C   0  0  0  0  0  0  0  0  0  0  0  0
  -10.2393    0.9898  -23.6333 C   0  0  0  0  0  0  0  0  0  0  0  0
   -9.5607    2.3142  -23.8225 C   0  0  0  0  0  0  0  0  0  0  0  0
  -10.3655    3.5798  -23.7958 O   0  0  0  0  0  0  0  0  0  0  0  0
   -7.4196   -4.0570  -23.6842 C   0  0  0  0  0  0  0  0  0  0  0  0
   -6.8741   -4.7464  -22.4688 C   0  0  0  0  0  0  0  0  0  0  0  0
   -6.9567   -6.2396  -22.3529 N   0  0  0  0  0  0  0  0  0  0  0  0
   -7.5849   -7.0435  -23.4525 C   0  0  0  0  0  0  0  0  0  0  0  0
   -8.1304   -6.3542  -24.6679 C   0  0  0  0  0  0  0  0  0  0  0  0
   -8.7586   -7.1582  -25.7676 C   0  0  0  0  0  0  0  0  0  0  0  0
   -9.3041   -6.4688  -26.9829 C   0  0  0  0  0  0  0  0  0  0  0  0
   -9.2215   -4.9755  -27.0988 C   0  0  0  0  0  0  0  0  0  0  0  0
   -8.5934   -4.1716  -25.9992 C   0  0  0  0  0  0  0  0  0  0  0  0
   -8.0478   -4.8610  -24.7838 C   0  0  0  0  0  0  0  0  0  0  0  0
   -7.3990    3.6973  -24.2275 C   0  0  0  0  0  0  0  0  0  0  0  0
   -6.3246    6.7327  -21.9076 C   0  0  0  0  0  0  0  0  0  0  0  0
   -6.8118    5.9626  -23.0991 N   0  0  0  0  0  0  0  0  0  0  0  0
   -6.9118    4.4673  -23.0360 C   0  0  0  0  0  0  0  0  0  0  0  0
   -6.5248    3.7420  -21.7813 O   0  0  0  0  0  0  0  0  0  0  0  0
   -7.0658    6.4386  -23.9226 H   0  0  0  0  0  0  0  0  0  0  0  0
   -5.5303    0.8356  -24.2949 C   0  0  0  0  0  0  0  0  0  0  0  0
   -4.2135    0.8730  -23.5776 N   0  0  0  0  0  0  0  0  0  0  0  0
   -3.3742    0.7828  -24.0842 H   0  0  0  0  0  0  0  0  0  0  0  0
   -4.1753    1.0480  -22.0883 C   0  0  0  0  0  0  0  0  0  0  0  0
   -3.4217    2.1103  -21.3444 C   0  0  0  0  0  0  0  0  0  0  0  0
   -3.6648    1.9101  -19.8778 N   0  0  0  0  0  0  0  0  0  0  0  0
   -4.5685    0.7240  -19.7153 N   0  0  0  0  0  0  0  0  0  0  0  0
   -5.0689    0.1684  -18.4150 C   0  0  0  0  0  0  0  0  0  0  0  0
   -4.8841    0.1912  -21.0815 C   0  0  0  0  0  0  0  0  0  0  0  0
 29 30  1  0  0  0
 30 31  1  0  0  0
 31 32  2  0  0  0
 31 28  1  0  0  0
 28  1  1  0  0  0
  1  2  1  0  0  0
  3  2  1  0  0  0
  3  4  1  0  0  0
  4  5  2  0  0  0
  4  6  1  0  0  0
  6 18  1  0  0  0
 18 19  2  0  0  0
 19 20  1  0  0  0
 20 21  2  0  0  0
 21 22  1  0  0  0
 22 23  2  0  0  0
 23 24  1  0  0  0
 24 25  2  0  0  0
 25 26  1  0  0  0
 26 27  2  0  0  0
  6  7  1  0  0  0
  7  8  1  0  0  0
  8 34  1  0  0  0
 34 35  1  0  0  0
 35 37  1  0  0  0
 37 38  1  0  0  0
 38 39  2  0  0  0
 39 40  1  0  0  0
 40 41  1  0  0  0
 40 42  1  0  0  0
  3  9  1  0  0  0
  9 10  2  0  0  0
 10 11  1  0  0  0
 11 12  1  0  0  0
 11 13  2  0  0  0
 13 14  1  0  0  0
 14 15  2  0  0  0
 15 16  1  0  0  0
 16 17  2  0  0  0
 16  1  1  0  0  0
  8  3  1  0  0  0
 42 37  2  0  0  0
 15  9  1  0  0  0
 27 18  1  0  0  0
 27 22  1  0  0  0
 30 33  1  0  0  0
 35 36  1  0  0  0
M  END
> <minimizedAffinity>
-7.83286

> <CNNscore>
0.1706126630

> <CNNaffinity>
6.4386229515

> <CNN_VS>
1.0985106230

> <CNNaffinity_variance>
0.3872441351

$$$$



 42 47  0  0  0  0  0  0  0  0999 V2000
   -6.5271   -0.4408  -22.4030 N   0  0  0  0  0  0  0  0  0  0  0  0
   -6.7843    0.8455  -23.1306 C   0  0  0  0  0  0  0  0  0  0  0  0
   -8.1604    1.1571  -23.6395 C   0  0  0  0  0  0  0  0  0  0  0  0
   -9.4771    1.6035  -24.2027 C   0  0  0  0  0  0  0  0  0  0  0  0
  -10.6266    1.2215  -24.2971 O   0  0  0  0  0  0  0  0  0  0  0  0
   -9.2765    2.9451  -24.8429 N   0  0  0  0  0  0  0  0  0  0  0  0
   -7.8359    3.3279  -24.6753 C   0  0  0  0  0  0  0  0  0  0  0  0
   -7.1461    2.2229  -23.9316 C   0  0  0  0  0  0  0  0  0  0  0  0
   -9.2795    0.1824  -23.4209 C   0  0  0  0  0  0  0  0  0  0  0  0
  -10.6557    0.4940  -23.9298 C   0  0  0  0  0  0  0  0  0  0  0  0
  -11.7747   -0.4806  -23.7111 C   0  0  0  0  0  0  0  0  0  0  0  0
  -13.1509   -0.1690  -24.2201 Cl  0  0  0  0  0  0  0  0  0  0  0  0
  -11.5175   -1.7669  -22.9836 C   0  0  0  0  0  0  0  0  0  0  0  0
  -10.1413   -2.0785  -22.4747 C   0  0  0  0  0  0  0  0  0  0  0  0
   -9.0223   -1.1039  -22.6933 C   0  0  0  0  0  0  0  0  0  0  0  0
   -7.6461   -1.4154  -22.1844 C   0  0  0  0  0  0  0  0  0  0  0  0
   -7.3889   -2.7017  -21.4568 O   0  0  0  0  0  0  0  0  0  0  0  0
  -10.3313    3.7607  -25.5300 C   0  0  0  0  0  0  0  0  0  0  0  0
  -10.2655    3.9759  -27.0131 C   0  0  0  0  0  0  0  0  0  0  0  0
  -11.3203    4.7914  -27.7002 N   0  0  0  0  0  0  0  0  0  0  0  0
  -12.4410    5.3919  -26.9043 C   0  0  0  0  0  0  0  0  0  0  0  0
  -12.5069    5.1767  -25.4212 C   0  0  0  0  0  0  0  0  0  0  0  0
  -13.6276    5.7772  -24.6253 C   0  0  0  0  0  0  0  0  0  0  0  0
  -13.6934    5.5619  -23.1422 C   0  0  0  0  0  0  0  0  0  0  0  0
  -12.6385    4.7464  -22.4551 C   0  0  0  0  0  0  0  0  0  0  0  0
  -11.5179    4.1460  -23.2511 C   0  0  0  0  0  0  0  0  0  0  0  0
  -11.4520    4.3611  -24.7341 C   0  0  0  0  0  0  0  0  0  0  0  0
   -5.1509   -0.7524  -21.8941 C   0  0  0  0  0  0  0  0  0  0  0  0
   -5.1070    0.1131  -18.0212 C   0  0  0  0  0  0  0  0  0  0  0  0
   -5.5547   -0.4225  -19.3489 N   0  0  0  0  0  0  0  0  0  0  0  0
   -4.7031   -0.2168  -20.5664 C   0  0  0  0  0  0  0  0  0  0  0  0
   -3.4037    0.5246  -20.4564 O   0  0  0  0  0  0  0  0  0  0  0  0
   -6.4075   -0.9091  -19.4211 H   0  0  0  0  0  0  0  0  0  0  0  0
   -5.6966    2.1895  -23.5474 C   0  0  0  0  0  0  0  0  0  0  0  0
   -4.6385    2.3680  -24.5954 N   0  0  0  0  0  0  0  0  0  0  0  0
   -4.3403    3.2725  -24.8449 H   0  0  0  0  0  0  0  0  0  0  0  0
   -4.0347    1.1684  -25.2636 C   0  0  0  0  0  0  0  0  0  0  0  0
   -2.8464    0.3931  -24.7771 C   0  0  0  0  0  0  0  0  0  0  0  0
   -2.5905   -0.7210  -25.7484 N   0  0  0  0  0  0  0  0  0  0  0  0
   -3.6208   -0.6342  -26.8352 N   0  0  0  0  0  0  0  0  0  0  0  0
   -3.7378   -1.5537  -28.0145 C   0  0  0  0  0  0  0  0  0  0  0  0
   -4.5133    0.5335  -26.5356 C   0  0  0  0  0  0  0  0  0  0  0  0
 29 30  1  0  0  0
 30 31  1  0  0  0
 31 32  2  0  0  0
 31 28  1  0  0  0
 28  1  1  0  0  0
  1  2  1  0  0  0
  3  2  1  0  0  0
  3  4  1  0  0  0
  4  5  2  0  0  0
  4  6  1  0  0  0
  6 18  1  0  0  0
 18 19  2  0  0  0
 19 20  1  0  0  0
 20 21  2  0  0  0
 21 22  1  0  0  0
 22 23  2  0  0  0
 23 24  1  0  0  0
 24 25  2  0  0  0
 25 26  1  0  0  0
 26 27  2  0  0  0
  6  7  1  0  0  0
  7  8  1  0  0  0
  8 34  1  0  0  0
 34 35  1  0  0  0
 35 37  1  0  0  0
 37 38  1  0  0  0
 38 39  2  0  0  0
 39 40  1  0  0  0
 40 41  1  0  0  0
 40 42  1  0  0  0
  3  9  1  0  0  0
  9 10  2  0  0  0
 10 11  1  0  0  0
 11 12  1  0  0  0
 11 13  2  0  0  0
 13 14  1  0  0  0
 14 15  2  0  0  0
 15 16  1  0  0  0
 16 17  2  0  0  0
 16  1  1  0  0  0
  8  3  1  0  0  0
 42 37  2  0  0  0
 15  9  1  0  0  0
 27 18  1  0  0  0
 27 22  1  0  0  0
 30 33  1  0  0  0
 35 36  1  0  0  0
M  END
> <minimizedAffinity>
-7.51881

> <CNNscore>
0.1581965834

> <CNNaffinity>
6.2858276367

> <CNN_VS>
0.9943964481

> <CNNaffinity_variance>
0.1964333802

$$$$



 42 47  0  0  0  0  0  0  0  0999 V2000
   -9.3492    2.8380  -24.2456 N   0  0  0  0  0  0  0  0  0  0  0  0
   -8.3956    1.6852  -24.3527 C   0  0  0  0  0  0  0  0  0  0  0  0
   -8.8796    0.2864  -24.1098 C   0  0  0  0  0  0  0  0  0  0  0  0
   -9.2167   -1.1595  -23.8958 C   0  0  0  0  0  0  0  0  0  0  0  0
  -10.1672   -1.8617  -23.6132 O   0  0  0  0  0  0  0  0  0  0  0  0
   -7.9669   -1.9625  -24.1034 N   0  0  0  0  0  0  0  0  0  0  0  0
   -6.8573   -1.0130  -24.4457 C   0  0  0  0  0  0  0  0  0  0  0  0
   -7.4214    0.3769  -24.4496 C   0  0  0  0  0  0  0  0  0  0  0  0
  -10.3174    0.0404  -23.7598 C   0  0  0  0  0  0  0  0  0  0  0  0
  -10.8015   -1.3584  -23.5169 C   0  0  0  0  0  0  0  0  0  0  0  0
  -12.2392   -1.6043  -23.1670 C   0  0  0  0  0  0  0  0  0  0  0  0
  -12.7233   -3.0031  -22.9241 Cl  0  0  0  0  0  0  0  0  0  0  0  0
  -13.1928   -0.4514  -23.0599 C   0  0  0  0  0  0  0  0  0  0  0  0
  -12.7087    0.9474  -23.3028 C   0  0  0  0  0  0  0  0  0  0  0  0
  -11.2710    1.1933  -23.6528 C   0  0  0  0  0  0  0  0  0  0  0  0
  -10.7869    2.5921  -23.8957 C   0  0  0  0  0  0  0  0  0  0  0  0
  -11.7405    3.7450  -23.7886 O   0  0  0  0  0  0  0  0  0  0  0  0
   -7.8476   -3.4534  -23.9888 C   0  0  0  0  0  0  0  0  0  0  0  0
   -7.2671   -4.0663  -22.7488 C   0  0  0  0  0  0  0  0  0  0  0  0
   -7.1478   -5.5571  -22.6343 N   0  0  0  0  0  0  0  0  0  0  0  0
   -7.6090   -6.4351  -23.7596 C   0  0  0  0  0  0  0  0  0  0  0  0
   -8.1895   -5.8222  -24.9996 C   0  0  0  0  0  0  0  0  0  0  0  0
   -8.6507   -6.7002  -26.1250 C   0  0  0  0  0  0  0  0  0  0  0  0
   -9.2311   -6.0873  -27.3649 C   0  0  0  0  0  0  0  0  0  0  0  0
   -9.3504   -4.5964  -27.4795 C   0  0  0  0  0  0  0  0  0  0  0  0
   -8.8892   -3.7185  -26.3541 C   0  0  0  0  0  0  0  0  0  0  0  0
   -8.3088   -4.3313  -25.1142 C   0  0  0  0  0  0  0  0  0  0  0  0
   -8.8650    4.2369  -24.4885 C   0  0  0  0  0  0  0  0  0  0  0  0
  -10.6763    5.7049  -27.7001 C   0  0  0  0  0  0  0  0  0  0  0  0
  -10.4654    5.0600  -26.3623 N   0  0  0  0  0  0  0  0  0  0  0  0
   -9.0759    4.8818  -25.8263 C   0  0  0  0  0  0  0  0  0  0  0  0
   -7.8971    5.3485  -26.6280 O   0  0  0  0  0  0  0  0  0  0  0  0
  -11.2391    4.7537  -25.8361 H   0  0  0  0  0  0  0  0  0  0  0  0
   -6.6608    1.6363  -24.7421 C   0  0  0  0  0  0  0  0  0  0  0  0
   -5.1885    1.7049  -24.4642 N   0  0  0  0  0  0  0  0  0  0  0  0
   -4.5448    1.6634  -25.2080 H   0  0  0  0  0  0  0  0  0  0  0  0
   -4.6968    1.8368  -23.0532 C   0  0  0  0  0  0  0  0  0  0  0  0
   -3.7870    2.9101  -22.5333 C   0  0  0  0  0  0  0  0  0  0  0  0
   -3.5565    2.6551  -21.0732 N   0  0  0  0  0  0  0  0  0  0  0  0
   -4.3238    1.4242  -20.6908 N   0  0  0  0  0  0  0  0  0  0  0  0
   -4.3769    0.8074  -19.3245 C   0  0  0  0  0  0  0  0  0  0  0  0
   -5.0285    0.9185  -21.9145 C   0  0  0  0  0  0  0  0  0  0  0  0
 29 30  1  0  0  0
 30 31  1  0  0  0
 31 32  2  0  0  0
 31 28  1  0  0  0
 28  1  1  0  0  0
  1  2  1  0  0  0
  3  2  1  0  0  0
  3  4  1  0  0  0
  4  5  2  0  0  0
  4  6  1  0  0  0
  6 18  1  0  0  0
 18 19  2  0  0  0
 19 20  1  0  0  0
 20 21  2  0  0  0
 21 22  1  0  0  0
 22 23  2  0  0  0
 23 24  1  0  0  0
 24 25  2  0  0  0
 25 26  1  0  0  0
 26 27  2  0  0  0
  6  7  1  0  0  0
  7  8  1  0  0  0
  8 34  1  0  0  0
 34 35  1  0  0  0
 35 37  1  0  0  0
 37 38  1  0  0  0
 38 39  2  0  0  0
 39 40  1  0  0  0
 40 41  1  0  0  0
 40 42  1  0  0  0
  3  9  1  0  0  0
  9 10  2  0  0  0
 10 11  1  0  0  0
 11 12  1  0  0  0
 11 13  2  0  0  0
 13 14  1  0  0  0
 14 15  2  0  0  0
 15 16  1  0  0  0
 16 17  2  0  0  0
 16  1  1  0  0  0
  8  3  1  0  0  0
 42 37  2  0  0  0
 15  9  1  0  0  0
 27 18  1  0  0  0
 27 22  1  0  0  0
 30 33  1  0  0  0
 35 36  1  0  0  0
M  END
> <minimizedAffinity>
-7.28906

> <CNNscore>
0.1458733827

> <CNNaffinity>
6.6605901718

> <CNN_VS>
0.9716027975

> <CNNaffinity_variance>
0.0781920105

$$$$



 42 47  0  0  0  0  0  0  0  0999 V2000
   -8.3987   -5.5254  -24.6140 N   0  0  0  0  0  0  0  0  0  0  0  0
   -7.3473   -5.1760  -23.6029 C   0  0  0  0  0  0  0  0  0  0  0  0
   -7.4157   -3.8685  -22.8710 C   0  0  0  0  0  0  0  0  0  0  0  0
   -7.3527   -2.6049  -22.0652 C   0  0  0  0  0  0  0  0  0  0  0  0
   -7.9665   -1.5677  -21.9110 O   0  0  0  0  0  0  0  0  0  0  0  0
   -6.1407   -2.6767  -21.1843 N   0  0  0  0  0  0  0  0  0  0  0  0
   -5.4546   -3.9848  -21.4458 C   0  0  0  0  0  0  0  0  0  0  0  0
   -6.2426   -4.7213  -22.4882 C   0  0  0  0  0  0  0  0  0  0  0  0
   -8.5356   -2.9104  -23.1501 C   0  0  0  0  0  0  0  0  0  0  0  0
   -8.6041   -1.6029  -22.4181 C   0  0  0  0  0  0  0  0  0  0  0  0
   -9.7240   -0.6449  -22.6973 C   0  0  0  0  0  0  0  0  0  0  0  0
   -9.7924    0.6627  -21.9653 Cl  0  0  0  0  0  0  0  0  0  0  0  0
  -10.7754   -0.9943  -23.7084 C   0  0  0  0  0  0  0  0  0  0  0  0
  -10.7070   -2.3018  -24.4403 C   0  0  0  0  0  0  0  0  0  0  0  0
   -9.5871   -3.2598  -24.1612 C   0  0  0  0  0  0  0  0  0  0  0  0
   -9.5186   -4.5674  -24.8931 C   0  0  0  0  0  0  0  0  0  0  0  0
  -10.5701   -4.9168  -25.9042 O   0  0  0  0  0  0  0  0  0  0  0  0
   -5.6933   -1.6252  -20.2127 C   0  0  0  0  0  0  0  0  0  0  0  0
   -6.0938   -1.7179  -18.7701 C   0  0  0  0  0  0  0  0  0  0  0  0
   -5.6465   -0.6663  -17.7985 N   0  0  0  0  0  0  0  0  0  0  0  0
   -4.7986    0.4779  -18.2694 C   0  0  0  0  0  0  0  0  0  0  0  0
   -4.3981    0.5706  -19.7120 C   0  0  0  0  0  0  0  0  0  0  0  0
   -3.5501    1.7149  -20.1829 C   0  0  0  0  0  0  0  0  0  0  0  0
   -3.1497    1.8075  -21.6255 C   0  0  0  0  0  0  0  0  0  0  0  0
   -3.5970    0.7560  -22.5972 C   0  0  0  0  0  0  0  0  0  0  0  0
   -4.4449   -0.3883  -22.1262 C   0  0  0  0  0  0  0  0  0  0  0  0
   -4.8454   -0.4810  -20.6836 C   0  0  0  0  0  0  0  0  0  0  0  0
   -8.3303   -6.8330  -25.3460 C   0  0  0  0  0  0  0  0  0  0  0  0
   -5.9199   -7.1301  -28.4847 C   0  0  0  0  0  0  0  0  0  0  0  0
   -6.3980   -7.0904  -27.0635 N   0  0  0  0  0  0  0  0  0  0  0  0
   -7.8522   -6.8727  -26.7672 C   0  0  0  0  0  0  0  0  0  0  0  0
   -8.8284   -6.6948  -27.8921 O   0  0  0  0  0  0  0  0  0  0  0  0
   -5.7573   -7.2072  -26.3252 H   0  0  0  0  0  0  0  0  0  0  0  0
   -5.9150   -6.0733  -23.0492 C   0  0  0  0  0  0  0  0  0  0  0  0
   -4.5004   -6.5716  -23.0277 N   0  0  0  0  0  0  0  0  0  0  0  0
   -3.9666   -6.5023  -22.2033 H   0  0  0  0  0  0  0  0  0  0  0  0
   -3.8990   -7.1755  -24.2620 C   0  0  0  0  0  0  0  0  0  0  0  0
   -4.4373   -8.3528  -25.0197 C   0  0  0  0  0  0  0  0  0  0  0  0
   -3.5247   -8.6130  -26.1813 N   0  0  0  0  0  0  0  0  0  0  0  0
   -2.4223   -7.5966  -26.1415 N   0  0  0  0  0  0  0  0  0  0  0  0
   -1.2878   -7.4877  -27.1167 C   0  0  0  0  0  0  0  0  0  0  0  0
   -2.6536   -6.7081  -24.9553 C   0  0  0  0  0  0  0  0  0  0  0  0
 29 30  1  0  0  0
 30 31  1  0  0  0
 31 32  2  0  0  0
 31 28  1  0  0  0
 28  1  1  0  0  0
  1  2  1  0  0  0
  3  2  1  0  0  0
  3  4  1  0  0  0
  4  5  2  0  0  0
  4  6  1  0  0  0
  6 18  1  0  0  0
 18 19  2  0  0  0
 19 20  1  0  0  0
 20 21  2  0  0  0
 21 22  1  0  0  0
 22 23  2  0  0  0
 23 24  1  0  0  0
 24 25  2  0  0  0
 25 26  1  0  0  0
 26 27  2  0  0  0
  6  7  1  0  0  0
  7  8  1  0  0  0
  8 34  1  0  0  0
 34 35  1  0  0  0
 35 37  1  0  0  0
 37 38  1  0  0  0
 38 39  2  0  0  0
 39 40  1  0  0  0
 40 41  1  0  0  0
 40 42  1  0  0  0
  3  9  1  0  0  0
  9 10  2  0  0  0
 10 11  1  0  0  0
 11 12  1  0  0  0
 11 13  2  0  0  0
 13 14  1  0  0  0
 14 15  2  0  0  0
 15 16  1  0  0  0
 16 17  2  0  0  0
 16  1  1  0  0  0
  8  3  1  0  0  0
 42 37  2  0  0  0
 15  9  1  0  0  0
 27 18  1  0  0  0
 27 22  1  0  0  0
 30 33  1  0  0  0
 35 36  1  0  0  0
M  END
> <minimizedAffinity>
-8.95740

> <CNNscore>
0.1340847909

> <CNNaffinity>
6.3765921593

> <CNN_VS>
0.8550040126

> <CNNaffinity_variance>
0.4870163500

$$$$



 42 47  0  0  0  0  0  0  0  0999 V2000
   -3.6442    2.0204  -23.3205 N   0  0  0  0  0  0  0  0  0  0  0  0
   -4.8844    1.1769  -23.3461 C   0  0  0  0  0  0  0  0  0  0  0  0
   -6.2339    1.8291  -23.4030 C   0  0  0  0  0  0  0  0  0  0  0  0
   -7.6444    2.3366  -23.4593 C   0  0  0  0  0  0  0  0  0  0  0  0
   -8.2550    3.3863  -23.4991 O   0  0  0  0  0  0  0  0  0  0  0  0
   -8.5635    1.1512  -23.4679 N   0  0  0  0  0  0  0  0  0  0  0  0
   -7.7212   -0.0889  -23.4169 C   0  0  0  0  0  0  0  0  0  0  0  0
   -6.2814    0.3301  -23.3768 C   0  0  0  0  0  0  0  0  0  0  0  0
   -6.3434    3.3248  -23.4344 C   0  0  0  0  0  0  0  0  0  0  0  0
   -7.6930    3.9770  -23.4913 C   0  0  0  0  0  0  0  0  0  0  0  0
   -7.8024    5.4727  -23.5227 C   0  0  0  0  0  0  0  0  0  0  0  0
   -9.1520    6.1250  -23.5796 Cl  0  0  0  0  0  0  0  0  0  0  0  0
   -6.5622    6.3161  -23.4971 C   0  0  0  0  0  0  0  0  0  0  0  0
   -5.2127    5.6639  -23.4402 C   0  0  0  0  0  0  0  0  0  0  0  0
   -5.1033    4.1683  -23.4088 C   0  0  0  0  0  0  0  0  0  0  0  0
   -3.7537    3.5160  -23.3519 C   0  0  0  0  0  0  0  0  0  0  0  0
   -2.5135    4.3594  -23.3263 O   0  0  0  0  0  0  0  0  0  0  0  0
  -10.0619    1.1978  -23.5186 C   0  0  0  0  0  0  0  0  0  0  0  0
  -10.7611    2.4779  -23.8685 C   0  0  0  0  0  0  0  0  0  0  0  0
  -12.2596    2.5245  -23.9191 N   0  0  0  0  0  0  0  0  0  0  0  0
  -13.0588    1.2910  -23.6199 C   0  0  0  0  0  0  0  0  0  0  0  0
  -12.3596    0.0108  -23.2700 C   0  0  0  0  0  0  0  0  0  0  0  0
  -13.1589   -1.2228  -22.9707 C   0  0  0  0  0  0  0  0  0  0  0  0
  -12.4596   -2.5029  -22.6208 C   0  0  0  0  0  0  0  0  0  0  0  0
  -10.9612   -2.5494  -22.5702 C   0  0  0  0  0  0  0  0  0  0  0  0
  -10.1620   -1.3159  -22.8694 C   0  0  0  0  0  0  0  0  0  0  0  0
  -10.8612   -0.0358  -23.2193 C   0  0  0  0  0  0  0  0  0  0  0  0
   -2.2946    1.3681  -23.2636 C   0  0  0  0  0  0  0  0  0  0  0  0
    0.6779    1.3512  -20.6342 C   0  0  0  0  0  0  0  0  0  0  0  0
   -0.0619    1.4314  -21.9366 N   0  0  0  0  0  0  0  0  0  0  0  0
   -1.5548    1.2879  -21.9612 C   0  0  0  0  0  0  0  0  0  0  0  0
   -2.3079    1.0641  -20.6833 O   0  0  0  0  0  0  0  0  0  0  0  0
    0.4324    1.5783  -22.7753 H   0  0  0  0  0  0  0  0  0  0  0  0
   -5.0971   -0.5887  -23.3204 C   0  0  0  0  0  0  0  0  0  0  0  0
   -5.1300   -1.8015  -22.4386 N   0  0  0  0  0  0  0  0  0  0  0  0
   -5.0323   -2.6988  -22.8317 H   0  0  0  0  0  0  0  0  0  0  0  0
   -5.3118   -1.6474  -20.9576 C   0  0  0  0  0  0  0  0  0  0  0  0
   -5.6191   -2.7495  -19.9876 C   0  0  0  0  0  0  0  0  0  0  0  0
   -5.7154   -2.1473  -18.6172 N   0  0  0  0  0  0  0  0  0  0  0  0
   -5.4677   -0.6730  -18.7402 N   0  0  0  0  0  0  0  0  0  0  0  0
   -5.4691    0.3183  -17.6144 C   0  0  0  0  0  0  0  0  0  0  0  0
   -5.2182   -0.3640  -20.1867 C   0  0  0  0  0  0  0  0  0  0  0  0
 29 30  1  0  0  0
 30 31  1  0  0  0
 31 32  2  0  0  0
 31 28  1  0  0  0
 28  1  1  0  0  0
  1  2  1  0  0  0
  3  2  1  0  0  0
  3  4  1  0  0  0
  4  5  2  0  0  0
  4  6  1  0  0  0
  6 18  1  0  0  0
 18 19  2  0  0  0
 19 20  1  0  0  0
 20 21  2  0  0  0
 21 22  1  0  0  0
 22 23  2  0  0  0
 23 24  1  0  0  0
 24 25  2  0  0  0
 25 26  1  0  0  0
 26 27  2  0  0  0
  6  7  1  0  0  0
  7  8  1  0  0  0
  8 34  1  0  0  0
 34 35  1  0  0  0
 35 37  1  0  0  0
 37 38  1  0  0  0
 38 39  2  0  0  0
 39 40  1  0  0  0
 40 41  1  0  0  0
 40 42  1  0  0  0
  3  9  1  0  0  0
  9 10  2  0  0  0
 10 11  1  0  0  0
 11 12  1  0  0  0
 11 13  2  0  0  0
 13 14  1  0  0  0
 14 15  2  0  0  0
 15 16  1  0  0  0
 16 17  2  0  0  0
 16  1  1  0  0  0
  8  3  1  0  0  0
 42 37  2  0  0  0
 15  9  1  0  0  0
 27 18  1  0  0  0
 27 22  1  0  0  0
 30 33  1  0  0  0
 35 36  1  0  0  0
M  END
> <minimizedAffinity>
-8.13319

> <CNNscore>
0.1329638064

> <CNNaffinity>
6.1143493652

> <CNN_VS>
0.8129871488

> <CNNaffinity_variance>
0.5581094623

$$$$
