


 21 23  0  0  0  0  0  0  0  0999 V2000
    8.9974   -1.5292   21.9094 C   0  0  0  0  0  0  0  0  0  0  0  0
    6.4600    1.6995   27.4219 C   0  0  0  0  0  0  0  0  0  0  0  0
    6.9707    1.2437   26.0872 C   0  0  0  0  0  0  0  0  0  0  0  0
    7.4654   -0.1617   25.9135 C   0  0  0  0  0  0  0  0  0  0  0  0
    7.9760   -0.6175   24.5788 C   0  0  0  0  0  0  0  0  0  0  0  0
    7.9920    0.3320   23.4177 N   0  0  0  0  0  0  0  0  0  0  0  0
    8.5027   -0.1238   22.0830 C   0  0  0  0  0  0  0  0  0  0  0  0
    8.5187    0.8258   20.9220 O   0  0  0  0  0  0  0  0  0  0  0  0
    7.4973    1.7375   23.5914 C   0  0  0  0  0  0  0  0  0  0  0  0
    7.5133    2.6870   22.4303 C   0  0  0  0  0  0  0  0  0  0  0  0
    6.9867    2.1933   24.9261 C   0  0  0  0  0  0  0  0  0  0  0  0
    9.3654   -2.3486   23.1107 C   0  0  0  0  0  0  0  0  0  0  0  0
    8.4334   -3.4144   23.6057 C   0  0  0  0  0  0  0  0  0  0  0  0
    8.8014   -4.2338   24.8070 N   0  0  0  0  0  0  0  0  0  0  0  0
   10.1016   -3.9874   25.5133 C   0  0  0  0  0  0  0  0  0  0  0  0
   11.0337   -2.9214   25.0183 C   0  0  0  0  0  0  0  0  0  0  0  0
   12.3338   -2.6750   25.7245 C   0  0  0  0  0  0  0  0  0  0  0  0
   13.2659   -1.6091   25.2295 C   0  0  0  0  0  0  0  0  0  0  0  0
   12.8978   -0.7897   24.0282 C   0  0  0  0  0  0  0  0  0  0  0  0
   11.5977   -1.0361   23.3219 C   0  0  0  0  0  0  0  0  0  0  0  0
   10.6657   -2.1020   23.8170 C   0  0  0  0  0  0  0  0  0  0  0  0
  3  2  1  0  0  0
  3  4  1  0  0  0
  4  5  1  0  0  0
  5  6  1  0  0  0
  6  7  1  0  0  0
  7  8  2  0  0  0
  7  1  1  0  0  0
  1 12  1  0  0  0
 12 13  2  0  0  0
 13 14  1  0  0  0
 14 15  2  0  0  0
 15 16  1  0  0  0
 16 17  2  0  0  0
 17 18  1  0  0  0
 18 19  2  0  0  0
 19 20  1  0  0  0
 20 21  2  0  0  0
  6  9  1  0  0  0
  9 10  1  0  0  0
  9 11  1  0  0  0
 11  3  1  0  0  0
 21 12  1  0  0  0
 21 16  1  0  0  0
M  END
> <minimizedAffinity>
-6.57928

> <CNNscore>
0.7634844780

> <CNNaffinity>
5.5901527405

> <CNN_VS>
4.2679948807

> <CNNaffinity_variance>
0.0679301172

$$$$



 21 23  0  0  0  0  0  0  0  0999 V2000
    8.9820   -2.7024   23.2594 C   0  0  0  0  0  0  0  0  0  0  0  0
    6.1857    2.5203   26.7456 C   0  0  0  0  0  0  0  0  0  0  0  0
    6.6643    1.2172   26.1774 C   0  0  0  0  0  0  0  0  0  0  0  0
    7.5462    1.2069   24.9642 C   0  0  0  0  0  0  0  0  0  0  0  0
    8.0248   -0.0962   24.3959 C   0  0  0  0  0  0  0  0  0  0  0  0
    7.6214   -1.3890   25.0409 N   0  0  0  0  0  0  0  0  0  0  0  0
    8.1000   -2.6920   24.4726 C   0  0  0  0  0  0  0  0  0  0  0  0
    7.6965   -3.9848   25.1177 O   0  0  0  0  0  0  0  0  0  0  0  0
    6.7394   -1.3786   26.2542 C   0  0  0  0  0  0  0  0  0  0  0  0
    6.3360   -2.6714   26.8992 C   0  0  0  0  0  0  0  0  0  0  0  0
    6.2608   -0.0755   26.8224 C   0  0  0  0  0  0  0  0  0  0  0  0
   10.3112   -2.0081   23.2925 C   0  0  0  0  0  0  0  0  0  0  0  0
   10.6587   -1.0027   22.2351 C   0  0  0  0  0  0  0  0  0  0  0  0
   11.9880   -0.3084   22.2682 N   0  0  0  0  0  0  0  0  0  0  0  0
   12.9697   -0.6196   23.3587 C   0  0  0  0  0  0  0  0  0  0  0  0
   12.6222   -1.6251   24.4163 C   0  0  0  0  0  0  0  0  0  0  0  0
   13.6039   -1.9363   25.5068 C   0  0  0  0  0  0  0  0  0  0  0  0
   13.2564   -2.9417   26.5642 C   0  0  0  0  0  0  0  0  0  0  0  0
   11.9271   -3.6360   26.5311 C   0  0  0  0  0  0  0  0  0  0  0  0
   10.9454   -3.3248   25.4406 C   0  0  0  0  0  0  0  0  0  0  0  0
   11.2929   -2.3194   24.3832 C   0  0  0  0  0  0  0  0  0  0  0  0
  3  2  1  0  0  0
  3  4  1  0  0  0
  4  5  1  0  0  0
  5  6  1  0  0  0
  6  7  1  0  0  0
  7  8  2  0  0  0
  7  1  1  0  0  0
  1 12  1  0  0  0
 12 13  2  0  0  0
 13 14  1  0  0  0
 14 15  2  0  0  0
 15 16  1  0  0  0
 16 17  2  0  0  0
 17 18  1  0  0  0
 18 19  2  0  0  0
 19 20  1  0  0  0
 20 21  2  0  0  0
  6  9  1  0  0  0
  9 10  1  0  0  0
  9 11  1  0  0  0
 11  3  1  0  0  0
 21 12  1  0  0  0
 21 16  1  0  0  0
M  END
> <minimizedAffinity>
-6.58482

> <CNNscore>
0.7515134215

> <CNNaffinity>
5.5488066673

> <CNN_VS>
4.1700024605

> <CNNaffinity_variance>
0.0611677691

$$$$



 21 23  0  0  0  0  0  0  0  0999 V2000
    8.4298   -0.6118   24.7072 C   0  0  0  0  0  0  0  0  0  0  0  0
    6.6993   -7.1386   23.4204 C   0  0  0  0  0  0  0  0  0  0  0  0
    6.8914   -5.6528   23.4941 C   0  0  0  0  0  0  0  0  0  0  0  0
    7.8536   -5.0693   24.4859 C   0  0  0  0  0  0  0  0  0  0  0  0
    8.0457   -3.5835   24.5596 C   0  0  0  0  0  0  0  0  0  0  0  0
    7.2755   -2.6812   23.6417 N   0  0  0  0  0  0  0  0  0  0  0  0
    7.4676   -1.1954   23.7154 C   0  0  0  0  0  0  0  0  0  0  0  0
    6.6974   -0.2931   22.7974 O   0  0  0  0  0  0  0  0  0  0  0  0
    6.3132   -3.2647   22.6499 C   0  0  0  0  0  0  0  0  0  0  0  0
    5.5431   -2.3624   21.7319 C   0  0  0  0  0  0  0  0  0  0  0  0
    6.1212   -4.7505   22.5761 C   0  0  0  0  0  0  0  0  0  0  0  0
    9.8584   -0.3748   24.3160 C   0  0  0  0  0  0  0  0  0  0  0  0
   10.1915    0.6629   23.2854 C   0  0  0  0  0  0  0  0  0  0  0  0
   11.6201    0.9000   22.8943 N   0  0  0  0  0  0  0  0  0  0  0  0
   12.7155    0.0993   23.5337 C   0  0  0  0  0  0  0  0  0  0  0  0
   12.3824   -0.9385   24.5643 C   0  0  0  0  0  0  0  0  0  0  0  0
   13.4779   -1.7392   25.2037 C   0  0  0  0  0  0  0  0  0  0  0  0
   13.1447   -2.7769   26.2343 C   0  0  0  0  0  0  0  0  0  0  0  0
   11.7162   -3.0140   26.6254 C   0  0  0  0  0  0  0  0  0  0  0  0
   10.6207   -2.2133   25.9860 C   0  0  0  0  0  0  0  0  0  0  0  0
   10.9539   -1.1756   24.9555 C   0  0  0  0  0  0  0  0  0  0  0  0
  3  2  1  0  0  0
  3  4  1  0  0  0
  4  5  1  0  0  0
  5  6  1  0  0  0
  6  7  1  0  0  0
  7  8  2  0  0  0
  7  1  1  0  0  0
  1 12  1  0  0  0
 12 13  2  0  0  0
 13 14  1  0  0  0
 14 15  2  0  0  0
 15 16  1  0  0  0
 16 17  2  0  0  0
 17 18  1  0  0  0
 18 19  2  0  0  0
 19 20  1  0  0  0
 20 21  2  0  0  0
  6  9  1  0  0  0
  9 10  1  0  0  0
  9 11  1  0  0  0
 11  3  1  0  0  0
 21 12  1  0  0  0
 21 16  1  0  0  0
M  END
> <minimizedAffinity>
-6.98925

> <CNNscore>
0.6723868251

> <CNNaffinity>
5.5984463692

> <CNN_VS>
3.7643215656

> <CNNaffinity_variance>
0.1715000570

$$$$



 21 23  0  0  0  0  0  0  0  0999 V2000
    9.0832   -2.0340   22.4152 C   0  0  0  0  0  0  0  0  0  0  0  0
    6.1752    2.9516   26.1485 C   0  0  0  0  0  0  0  0  0  0  0  0
    6.7183    2.0148   25.1105 C   0  0  0  0  0  0  0  0  0  0  0  0
    7.4540    0.7765   25.5292 C   0  0  0  0  0  0  0  0  0  0  0  0
    7.9971   -0.1603   24.4912 C   0  0  0  0  0  0  0  0  0  0  0  0
    7.8044    0.1411   23.0345 N   0  0  0  0  0  0  0  0  0  0  0  0
    8.3475   -0.7957   21.9965 C   0  0  0  0  0  0  0  0  0  0  0  0
    8.1548   -0.4942   20.5397 O   0  0  0  0  0  0  0  0  0  0  0  0
    7.0686    1.3794   22.6157 C   0  0  0  0  0  0  0  0  0  0  0  0
    6.8760    1.6809   21.1590 C   0  0  0  0  0  0  0  0  0  0  0  0
    6.5256    2.3163   23.6537 C   0  0  0  0  0  0  0  0  0  0  0  0
   10.4461   -1.9242   23.0319 C   0  0  0  0  0  0  0  0  0  0  0  0
   11.5227   -1.1436   22.3379 C   0  0  0  0  0  0  0  0  0  0  0  0
   12.8856   -1.0338   22.9546 N   0  0  0  0  0  0  0  0  0  0  0  0
   13.1720   -1.7046   24.2653 C   0  0  0  0  0  0  0  0  0  0  0  0
   12.0954   -2.4853   24.9593 C   0  0  0  0  0  0  0  0  0  0  0  0
   12.3818   -3.1561   26.2700 C   0  0  0  0  0  0  0  0  0  0  0  0
   11.3053   -3.9366   26.9640 C   0  0  0  0  0  0  0  0  0  0  0  0
    9.9423   -4.0464   26.3473 C   0  0  0  0  0  0  0  0  0  0  0  0
    9.6559   -3.3756   25.0366 C   0  0  0  0  0  0  0  0  0  0  0  0
   10.7325   -2.5951   24.3426 C   0  0  0  0  0  0  0  0  0  0  0  0
  3  2  1  0  0  0
  3  4  1  0  0  0
  4  5  1  0  0  0
  5  6  1  0  0  0
  6  7  1  0  0  0
  7  8  2  0  0  0
  7  1  1  0  0  0
  1 12  1  0  0  0
 12 13  2  0  0  0
 13 14  1  0  0  0
 14 15  2  0  0  0
 15 16  1  0  0  0
 16 17  2  0  0  0
 17 18  1  0  0  0
 18 19  2  0  0  0
 19 20  1  0  0  0
 20 21  2  0  0  0
  6  9  1  0  0  0
  9 10  1  0  0  0
  9 11  1  0  0  0
 11  3  1  0  0  0
 21 12  1  0  0  0
 21 16  1  0  0  0
M  END
> <minimizedAffinity>
-6.68149

> <CNNscore>
0.6336352229

> <CNNaffinity>
5.4105987549

> <CNN_VS>
3.4283459187

> <CNNaffinity_variance>
0.0416103415

$$$$



 21 23  0  0  0  0  0  0  0  0999 V2000
    9.7404   -1.8985   22.2848 C   0  0  0  0  0  0  0  0  0  0  0  0
   11.8603    4.5841   23.1404 C   0  0  0  0  0  0  0  0  0  0  0  0
   11.1483    3.2887   22.8854 C   0  0  0  0  0  0  0  0  0  0  0  0
   11.8765    1.9877   23.0497 C   0  0  0  0  0  0  0  0  0  0  0  0
   11.1644    0.6923   22.7947 C   0  0  0  0  0  0  0  0  0  0  0  0
    9.7243    0.6979   22.3755 N   0  0  0  0  0  0  0  0  0  0  0  0
    9.0122   -0.5975   22.1205 C   0  0  0  0  0  0  0  0  0  0  0  0
    7.5720   -0.5918   21.7013 O   0  0  0  0  0  0  0  0  0  0  0  0
    8.9960    1.9990   22.2112 C   0  0  0  0  0  0  0  0  0  0  0  0
    7.5558    2.0047   21.7920 C   0  0  0  0  0  0  0  0  0  0  0  0
    9.7080    3.2944   22.4662 C   0  0  0  0  0  0  0  0  0  0  0  0
    9.6862   -2.6282   23.5942 C   0  0  0  0  0  0  0  0  0  0  0  0
    8.4187   -3.3057   24.0234 C   0  0  0  0  0  0  0  0  0  0  0  0
    8.3645   -4.0354   25.3328 N   0  0  0  0  0  0  0  0  0  0  0  0
    9.5779   -4.0876   26.2131 C   0  0  0  0  0  0  0  0  0  0  0  0
   10.8455   -3.4100   25.7839 C   0  0  0  0  0  0  0  0  0  0  0  0
   12.0589   -3.4622   26.6642 C   0  0  0  0  0  0  0  0  0  0  0  0
   13.3265   -2.7847   26.2351 C   0  0  0  0  0  0  0  0  0  0  0  0
   13.3806   -2.0550   24.9256 C   0  0  0  0  0  0  0  0  0  0  0  0
   12.1673   -2.0028   24.0454 C   0  0  0  0  0  0  0  0  0  0  0  0
   10.8997   -2.6803   24.4745 C   0  0  0  0  0  0  0  0  0  0  0  0
  3  2  1  0  0  0
  3  4  1  0  0  0
  4  5  1  0  0  0
  5  6  1  0  0  0
  6  7  1  0  0  0
  7  8  2  0  0  0
  7  1  1  0  0  0
  1 12  1  0  0  0
 12 13  2  0  0  0
 13 14  1  0  0  0
 14 15  2  0  0  0
 15 16  1  0  0  0
 16 17  2  0  0  0
 17 18  1  0  0  0
 18 19  2  0  0  0
 19 20  1  0  0  0
 20 21  2  0  0  0
  6  9  1  0  0  0
  9 10  1  0  0  0
  9 11  1  0  0  0
 11  3  1  0  0  0
 21 12  1  0  0  0
 21 16  1  0  0  0
M  END
> <minimizedAffinity>
-7.35562

> <CNNscore>
0.6214931011

> <CNNaffinity>
5.4306364059

> <CNN_VS>
3.3751029968

> <CNNaffinity_variance>
0.1129164323

$$$$



 21 23  0  0  0  0  0  0  0  0999 V2000
    6.1755   -0.4548   21.7832 C   0  0  0  0  0  0  0  0  0  0  0  0
   10.0095   -4.2683   26.0267 C   0  0  0  0  0  0  0  0  0  0  0  0
    9.0480   -3.6834   25.0350 C   0  0  0  0  0  0  0  0  0  0  0  0
    9.0600   -2.2093   24.7583 C   0  0  0  0  0  0  0  0  0  0  0  0
    8.0985   -1.6244   23.7666 C   0  0  0  0  0  0  0  0  0  0  0  0
    7.1249   -2.5138   23.0517 N   0  0  0  0  0  0  0  0  0  0  0  0
    6.1634   -1.9289   22.0600 C   0  0  0  0  0  0  0  0  0  0  0  0
    5.1898   -2.8183   21.3450 O   0  0  0  0  0  0  0  0  0  0  0  0
    7.1128   -3.9880   23.3284 C   0  0  0  0  0  0  0  0  0  0  0  0
    6.1392   -4.8773   22.6135 C   0  0  0  0  0  0  0  0  0  0  0  0
    8.0743   -4.5728   24.3201 C   0  0  0  0  0  0  0  0  0  0  0  0
    5.7352    0.0608   20.4452 C   0  0  0  0  0  0  0  0  0  0  0  0
    6.5252   -0.2749   19.2151 C   0  0  0  0  0  0  0  0  0  0  0  0
    6.0849    0.2406   17.8771 N   0  0  0  0  0  0  0  0  0  0  0  0
    4.8546    1.0919   17.7691 C   0  0  0  0  0  0  0  0  0  0  0  0
    4.0645    1.4276   18.9992 C   0  0  0  0  0  0  0  0  0  0  0  0
    2.8342    2.2788   18.8912 C   0  0  0  0  0  0  0  0  0  0  0  0
    2.0442    2.6145   20.1213 C   0  0  0  0  0  0  0  0  0  0  0  0
    2.4845    2.0990   21.4594 C   0  0  0  0  0  0  0  0  0  0  0  0
    3.7148    1.2478   21.5673 C   0  0  0  0  0  0  0  0  0  0  0  0
    4.5048    0.9121   20.3373 C   0  0  0  0  0  0  0  0  0  0  0  0
  3  2  1  0  0  0
  3  4  1  0  0  0
  4  5  1  0  0  0
  5  6  1  0  0  0
  6  7  1  0  0  0
  7  8  2  0  0  0
  7  1  1  0  0  0
  1 12  1  0  0  0
 12 13  2  0  0  0
 13 14  1  0  0  0
 14 15  2  0  0  0
 15 16  1  0  0  0
 16 17  2  0  0  0
 17 18  1  0  0  0
 18 19  2  0  0  0
 19 20  1  0  0  0
 20 21  2  0  0  0
  6  9  1  0  0  0
  9 10  1  0  0  0
  9 11  1  0  0  0
 11  3  1  0  0  0
 21 12  1  0  0  0
 21 16  1  0  0  0
M  END
> <minimizedAffinity>
-6.75266

> <CNNscore>
0.6133953929

> <CNNaffinity>
5.1483068466

> <CNN_VS>
3.1579477787

> <CNNaffinity_variance>
0.0966185853

$$$$



 21 23  0  0  0  0  0  0  0  0999 V2000
    8.9986   -2.7388   26.2357 C   0  0  0  0  0  0  0  0  0  0  0  0
    2.3940   -4.6379   26.3880 C   0  0  0  0  0  0  0  0  0  0  0  0
    3.8626   -4.4318   26.1626 C   0  0  0  0  0  0  0  0  0  0  0  0
    4.5928   -3.3570   26.9119 C   0  0  0  0  0  0  0  0  0  0  0  0
    6.0614   -3.1509   26.6865 C   0  0  0  0  0  0  0  0  0  0  0  0
    6.7997   -4.0197   25.7118 N   0  0  0  0  0  0  0  0  0  0  0  0
    8.2683   -3.8136   25.4864 C   0  0  0  0  0  0  0  0  0  0  0  0
    9.0067   -4.6824   24.5116 O   0  0  0  0  0  0  0  0  0  0  0  0
    6.0695   -5.0945   24.9624 C   0  0  0  0  0  0  0  0  0  0  0  0
    6.8078   -5.9632   23.9877 C   0  0  0  0  0  0  0  0  0  0  0  0
    4.6009   -5.3006   25.1878 C   0  0  0  0  0  0  0  0  0  0  0  0
   10.4490   -2.4807   25.9534 C   0  0  0  0  0  0  0  0  0  0  0  0
   11.5030   -3.3096   26.6257 C   0  0  0  0  0  0  0  0  0  0  0  0
   12.9534   -3.0515   26.3433 N   0  0  0  0  0  0  0  0  0  0  0  0
   13.3498   -1.9645   25.3888 C   0  0  0  0  0  0  0  0  0  0  0  0
   12.2958   -1.1355   24.7165 C   0  0  0  0  0  0  0  0  0  0  0  0
   12.6922   -0.0485   23.7619 C   0  0  0  0  0  0  0  0  0  0  0  0
   11.6382    0.7804   23.0897 C   0  0  0  0  0  0  0  0  0  0  0  0
   10.1878    0.5223   23.3720 C   0  0  0  0  0  0  0  0  0  0  0  0
    9.7914   -0.5647   24.3266 C   0  0  0  0  0  0  0  0  0  0  0  0
   10.8454   -1.3936   24.9988 C   0  0  0  0  0  0  0  0  0  0  0  0
  3  2  1  0  0  0
  3  4  1  0  0  0
  4  5  1  0  0  0
  5  6  1  0  0  0
  6  7  1  0  0  0
  7  8  2  0  0  0
  7  1  1  0  0  0
  1 12  1  0  0  0
 12 13  2  0  0  0
 13 14  1  0  0  0
 14 15  2  0  0  0
 15 16  1  0  0  0
 16 17  2  0  0  0
 17 18  1  0  0  0
 18 19  2  0  0  0
 19 20  1  0  0  0
 20 21  2  0  0  0
  6  9  1  0  0  0
  9 10  1  0  0  0
  9 11  1  0  0  0
 11  3  1  0  0  0
 21 12  1  0  0  0
 21 16  1  0  0  0
M  END
> <minimizedAffinity>
-6.54288

> <CNNscore>
0.6129010916

> <CNNaffinity>
5.5068178177

> <CNN_VS>
3.3751347065

> <CNNaffinity_variance>
0.0949628949

$$$$



 21 23  0  0  0  0  0  0  0  0999 V2000
    7.9888   -2.0699   26.0364 C   0  0  0  0  0  0  0  0  0  0  0  0
    5.5114   -6.4399   21.3443 C   0  0  0  0  0  0  0  0  0  0  0  0
    5.8576   -5.6033   22.5402 C   0  0  0  0  0  0  0  0  0  0  0  0
    6.9501   -4.5796   22.4486 C   0  0  0  0  0  0  0  0  0  0  0  0
    7.2964   -3.7431   23.6445 C   0  0  0  0  0  0  0  0  0  0  0  0
    6.5501   -3.9302   24.9321 N   0  0  0  0  0  0  0  0  0  0  0  0
    6.8963   -3.0936   26.1280 C   0  0  0  0  0  0  0  0  0  0  0  0
    6.1499   -3.2807   27.4157 O   0  0  0  0  0  0  0  0  0  0  0  0
    5.4575   -4.9539   25.0238 C   0  0  0  0  0  0  0  0  0  0  0  0
    4.7112   -5.1410   26.3114 C   0  0  0  0  0  0  0  0  0  0  0  0
    5.1112   -5.7904   23.8279 C   0  0  0  0  0  0  0  0  0  0  0  0
    9.4240   -2.4934   26.1403 C   0  0  0  0  0  0  0  0  0  0  0  0
    9.8006   -3.6624   27.0014 C   0  0  0  0  0  0  0  0  0  0  0  0
   11.2358   -4.0859   27.1054 N   0  0  0  0  0  0  0  0  0  0  0  0
   12.2945   -3.3403   26.3482 C   0  0  0  0  0  0  0  0  0  0  0  0
   11.9179   -2.1712   25.4871 C   0  0  0  0  0  0  0  0  0  0  0  0
   12.9766   -1.4256   24.7300 C   0  0  0  0  0  0  0  0  0  0  0  0
   12.6001   -0.2566   23.8689 C   0  0  0  0  0  0  0  0  0  0  0  0
   11.1648    0.1669   23.7649 C   0  0  0  0  0  0  0  0  0  0  0  0
   10.1062   -0.5787   24.5220 C   0  0  0  0  0  0  0  0  0  0  0  0
   10.4827   -1.7477   25.3831 C   0  0  0  0  0  0  0  0  0  0  0  0
  3  2  1  0  0  0
  3  4  1  0  0  0
  4  5  1  0  0  0
  5  6  1  0  0  0
  6  7  1  0  0  0
  7  8  2  0  0  0
  7  1  1  0  0  0
  1 12  1  0  0  0
 12 13  2  0  0  0
 13 14  1  0  0  0
 14 15  2  0  0  0
 15 16  1  0  0  0
 16 17  2  0  0  0
 17 18  1  0  0  0
 18 19  2  0  0  0
 19 20  1  0  0  0
 20 21  2  0  0  0
  6  9  1  0  0  0
  9 10  1  0  0  0
  9 11  1  0  0  0
 11  3  1  0  0  0
 21 12  1  0  0  0
 21 16  1  0  0  0
M  END
> <minimizedAffinity>
-6.55028

> <CNNscore>
0.6105768085

> <CNNaffinity>
5.5177054405

> <CNN_VS>
3.3689830303

> <CNNaffinity_variance>
0.1077818125

$$$$



 21 23  0  0  0  0  0  0  0  0999 V2000
   12.0584   -1.1547   22.6358 C   0  0  0  0  0  0  0  0  0  0  0  0
    7.3678    3.8270   23.2929 C   0  0  0  0  0  0  0  0  0  0  0  0
    8.5770    2.9548   23.1284 C   0  0  0  0  0  0  0  0  0  0  0  0
    8.4307    1.4619   23.1292 C   0  0  0  0  0  0  0  0  0  0  0  0
    9.6399    0.5897   22.9647 C   0  0  0  0  0  0  0  0  0  0  0  0
   10.9955    1.2103   22.7995 N   0  0  0  0  0  0  0  0  0  0  0  0
   12.2047    0.3381   22.6350 C   0  0  0  0  0  0  0  0  0  0  0  0
   13.5603    0.9588   22.4698 O   0  0  0  0  0  0  0  0  0  0  0  0
   11.1418    2.7032   22.7988 C   0  0  0  0  0  0  0  0  0  0  0  0
   12.4974    3.3238   22.6336 C   0  0  0  0  0  0  0  0  0  0  0  0
    9.9326    3.5754   22.9632 C   0  0  0  0  0  0  0  0  0  0  0  0
   12.1660   -1.9182   23.9224 C   0  0  0  0  0  0  0  0  0  0  0  0
   13.4604   -1.9322   24.6802 C   0  0  0  0  0  0  0  0  0  0  0  0
   13.5680   -2.6958   25.9668 N   0  0  0  0  0  0  0  0  0  0  0  0
   12.3812   -3.4453   26.4957 C   0  0  0  0  0  0  0  0  0  0  0  0
   11.0867   -3.4313   25.7379 C   0  0  0  0  0  0  0  0  0  0  0  0
    9.8999   -4.1808   26.2668 C   0  0  0  0  0  0  0  0  0  0  0  0
    8.6055   -4.1668   25.5090 C   0  0  0  0  0  0  0  0  0  0  0  0
    8.4979   -3.4032   24.2224 C   0  0  0  0  0  0  0  0  0  0  0  0
    9.6847   -2.6537   23.6935 C   0  0  0  0  0  0  0  0  0  0  0  0
   10.9791   -2.6677   24.4513 C   0  0  0  0  0  0  0  0  0  0  0  0
  3  2  1  0  0  0
  3  4  1  0  0  0
  4  5  1  0  0  0
  5  6  1  0  0  0
  6  7  1  0  0  0
  7  8  2  0  0  0
  7  1  1  0  0  0
  1 12  1  0  0  0
 12 13  2  0  0  0
 13 14  1  0  0  0
 14 15  2  0  0  0
 15 16  1  0  0  0
 16 17  2  0  0  0
 17 18  1  0  0  0
 18 19  2  0  0  0
 19 20  1  0  0  0
 20 21  2  0  0  0
  6  9  1  0  0  0
  9 10  1  0  0  0
  9 11  1  0  0  0
 11  3  1  0  0  0
 21 12  1  0  0  0
 21 16  1  0  0  0
M  END
> <minimizedAffinity>
-7.06876

> <CNNscore>
0.5977631211

> <CNNaffinity>
5.5459074974

> <CNN_VS>
3.3151390553

> <CNNaffinity_variance>
0.1985518038

$$$$
