


 21 23  0  0  0  0  0  0  0  0999 V2000
   -6.4073   -2.0607  -21.6830 C   0  0  0  0  0  0  0  0  0  0  0  0
   -8.9844   -7.0159  -25.6898 C   0  0  0  0  0  0  0  0  0  0  0  0
   -8.2780   -6.1469  -24.6920 C   0  0  0  0  0  0  0  0  0  0  0  0
   -8.5267   -4.6678  -24.6766 C   0  0  0  0  0  0  0  0  0  0  0  0
   -7.8202   -3.7988  -23.6788 C   0  0  0  0  0  0  0  0  0  0  0  0
   -6.8651   -4.4089  -22.6962 N   0  0  0  0  0  0  0  0  0  0  0  0
   -6.1586   -3.5399  -21.6983 C   0  0  0  0  0  0  0  0  0  0  0  0
   -5.2035   -4.1501  -20.7158 O   0  0  0  0  0  0  0  0  0  0  0  0
   -6.6164   -5.8881  -22.7115 C   0  0  0  0  0  0  0  0  0  0  0  0
   -5.6613   -6.4982  -21.7290 C   0  0  0  0  0  0  0  0  0  0  0  0
   -7.3228   -6.7571  -23.7094 C   0  0  0  0  0  0  0  0  0  0  0  0
   -5.9524   -1.2358  -20.5158 C   0  0  0  0  0  0  0  0  0  0  0  0
   -6.6273   -1.3836  -19.1844 C   0  0  0  0  0  0  0  0  0  0  0  0
   -6.1724   -0.5586  -18.0172 N   0  0  0  0  0  0  0  0  0  0  0  0
   -5.0425    0.4141  -18.1813 C   0  0  0  0  0  0  0  0  0  0  0  0
   -4.3674    0.5620  -19.5127 C   0  0  0  0  0  0  0  0  0  0  0  0
   -3.2375    1.5347  -19.6768 C   0  0  0  0  0  0  0  0  0  0  0  0
   -2.5625    1.6825  -21.0081 C   0  0  0  0  0  0  0  0  0  0  0  0
   -3.0175    0.8576  -22.1753 C   0  0  0  0  0  0  0  0  0  0  0  0
   -4.1474   -0.1152  -22.0112 C   0  0  0  0  0  0  0  0  0  0  0  0
   -4.8224   -0.2630  -20.6799 C   0  0  0  0  0  0  0  0  0  0  0  0
  3  2  1  0  0  0
  3  4  1  0  0  0
  4  5  1  0  0  0
  5  6  1  0  0  0
  6  7  1  0  0  0
  7  8  2  0  0  0
  7  1  1  0  0  0
  1 12  1  0  0  0
 12 13  2  0  0  0
 13 14  1  0  0  0
 14 15  2  0  0  0
 15 16  1  0  0  0
 16 17  2  0  0  0
 17 18  1  0  0  0
 18 19  2  0  0  0
 19 20  1  0  0  0
 20 21  2  0  0  0
  6  9  1  0  0  0
  9 10  1  0  0  0
  9 11  1  0  0  0
 11  3  1  0  0  0
 21 12  1  0  0  0
 21 16  1  0  0  0
M  END
> <minimizedAffinity>
-7.61484

> <CNNscore>
0.8234748840

> <CNNaffinity>
5.2735710144

> <CNN_VS>
4.3426532745

> <CNNaffinity_variance>
0.5207002759

$$$$



 21 23  0  0  0  0  0  0  0  0999 V2000
   -6.5787   -2.1883  -21.6211 C   0  0  0  0  0  0  0  0  0  0  0  0
  -10.3369   -5.6942  -26.1855 C   0  0  0  0  0  0  0  0  0  0  0  0
   -9.7458   -4.7609  -25.1709 C   0  0  0  0  0  0  0  0  0  0  0  0
   -8.3522   -4.9883  -24.6649 C   0  0  0  0  0  0  0  0  0  0  0  0
   -7.7610   -4.0550  -23.6503 C   0  0  0  0  0  0  0  0  0  0  0  0
   -8.5635   -2.8942  -23.1417 N   0  0  0  0  0  0  0  0  0  0  0  0
   -7.9723   -1.9609  -22.1271 C   0  0  0  0  0  0  0  0  0  0  0  0
   -8.7748   -0.8000  -21.6186 O   0  0  0  0  0  0  0  0  0  0  0  0
   -9.9571   -2.6667  -23.6478 C   0  0  0  0  0  0  0  0  0  0  0  0
  -10.7596   -1.5059  -23.1393 C   0  0  0  0  0  0  0  0  0  0  0  0
  -10.5483   -3.6000  -24.6624 C   0  0  0  0  0  0  0  0  0  0  0  0
   -6.0442   -1.3538  -20.4951 C   0  0  0  0  0  0  0  0  0  0  0  0
   -6.6201   -1.4957  -19.1174 C   0  0  0  0  0  0  0  0  0  0  0  0
   -6.0855   -0.6612  -17.9914 N   0  0  0  0  0  0  0  0  0  0  0  0
   -4.9750    0.3152  -18.2431 C   0  0  0  0  0  0  0  0  0  0  0  0
   -4.3990    0.4571  -19.6209 C   0  0  0  0  0  0  0  0  0  0  0  0
   -3.2885    1.4335  -19.8726 C   0  0  0  0  0  0  0  0  0  0  0  0
   -2.7126    1.5753  -21.2503 C   0  0  0  0  0  0  0  0  0  0  0  0
   -3.2471    0.7408  -22.3763 C   0  0  0  0  0  0  0  0  0  0  0  0
   -4.3576   -0.2355  -22.1246 C   0  0  0  0  0  0  0  0  0  0  0  0
   -4.9336   -0.3774  -20.7469 C   0  0  0  0  0  0  0  0  0  0  0  0
  3  2  1  0  0  0
  3  4  1  0  0  0
  4  5  1  0  0  0
  5  6  1  0  0  0
  6  7  1  0  0  0
  7  8  2  0  0  0
  7  1  1  0  0  0
  1 12  1  0  0  0
 12 13  2  0  0  0
 13 14  1  0  0  0
 14 15  2  0  0  0
 15 16  1  0  0  0
 16 17  2  0  0  0
 17 18  1  0  0  0
 18 19  2  0  0  0
 19 20  1  0  0  0
 20 21  2  0  0  0
  6  9  1  0  0  0
  9 10  1  0  0  0
  9 11  1  0  0  0
 11  3  1  0  0  0
 21 12  1  0  0  0
 21 16  1  0  0  0
M  END
> <minimizedAffinity>
-7.06116

> <CNNscore>
0.7147980928

> <CNNaffinity>
5.2014837265

> <CNN_VS>
3.7180106640

> <CNNaffinity_variance>
0.2840410173

$$$$



 21 23  0  0  0  0  0  0  0  0999 V2000
   -9.1290   -2.2459  -24.1263 C   0  0  0  0  0  0  0  0  0  0  0  0
  -12.4136    3.7712  -23.6197 C   0  0  0  0  0  0  0  0  0  0  0  0
  -11.9470    2.3460  -23.6532 C   0  0  0  0  0  0  0  0  0  0  0  0
  -10.5289    2.0297  -24.0258 C   0  0  0  0  0  0  0  0  0  0  0  0
  -10.0623    0.6045  -24.0593 C   0  0  0  0  0  0  0  0  0  0  0  0
  -11.0138   -0.5044  -23.7203 N   0  0  0  0  0  0  0  0  0  0  0  0
  -10.5472   -1.9296  -23.7538 C   0  0  0  0  0  0  0  0  0  0  0  0
  -11.4988   -3.0385  -23.4147 O   0  0  0  0  0  0  0  0  0  0  0  0
  -12.4320   -0.1881  -23.3477 C   0  0  0  0  0  0  0  0  0  0  0  0
  -13.3835   -1.2970  -23.0087 C   0  0  0  0  0  0  0  0  0  0  0  0
  -12.8986    1.2371  -23.3142 C   0  0  0  0  0  0  0  0  0  0  0  0
   -8.6448   -3.6653  -24.0977 C   0  0  0  0  0  0  0  0  0  0  0  0
   -7.9711   -4.2033  -22.8703 C   0  0  0  0  0  0  0  0  0  0  0  0
   -7.4869   -5.6227  -22.8417 N   0  0  0  0  0  0  0  0  0  0  0  0
   -7.6764   -6.5041  -24.0405 C   0  0  0  0  0  0  0  0  0  0  0  0
   -8.3501   -5.9661  -25.2680 C   0  0  0  0  0  0  0  0  0  0  0  0
   -8.5396   -6.8475  -26.4668 C   0  0  0  0  0  0  0  0  0  0  0  0
   -9.2133   -6.3095  -27.6942 C   0  0  0  0  0  0  0  0  0  0  0  0
   -9.6976   -4.8901  -27.7228 C   0  0  0  0  0  0  0  0  0  0  0  0
   -9.5081   -4.0087  -26.5240 C   0  0  0  0  0  0  0  0  0  0  0  0
   -8.8343   -4.5467  -25.2966 C   0  0  0  0  0  0  0  0  0  0  0  0
  3  2  1  0  0  0
  3  4  1  0  0  0
  4  5  1  0  0  0
  5  6  1  0  0  0
  6  7  1  0  0  0
  7  8  2  0  0  0
  7  1  1  0  0  0
  1 12  1  0  0  0
 12 13  2  0  0  0
 13 14  1  0  0  0
 14 15  2  0  0  0
 15 16  1  0  0  0
 16 17  2  0  0  0
 17 18  1  0  0  0
 18 19  2  0  0  0
 19 20  1  0  0  0
 20 21  2  0  0  0
  6  9  1  0  0  0
  9 10  1  0  0  0
  9 11  1  0  0  0
 11  3  1  0  0  0
 21 12  1  0  0  0
 21 16  1  0  0  0
M  END
> <minimizedAffinity>
-6.31807

> <CNNscore>
0.5014535189

> <CNNaffinity>
4.9930701256

> <CNN_VS>
2.5037925243

> <CNNaffinity_variance>
0.2101470679

$$$$



 21 23  0  0  0  0  0  0  0  0999 V2000
   -6.7386   -1.6227  -20.7248 C   0  0  0  0  0  0  0  0  0  0  0  0
  -10.3186   -4.7991  -25.6588 C   0  0  0  0  0  0  0  0  0  0  0  0
   -9.7229   -3.8936  -24.6218 C   0  0  0  0  0  0  0  0  0  0  0  0
   -8.5257   -4.3392  -23.8355 C   0  0  0  0  0  0  0  0  0  0  0  0
   -7.9300   -3.4337  -22.7986 C   0  0  0  0  0  0  0  0  0  0  0  0
   -8.5314   -2.0826  -22.5480 N   0  0  0  0  0  0  0  0  0  0  0  0
   -7.9357   -1.1771  -21.5111 C   0  0  0  0  0  0  0  0  0  0  0  0
   -8.5372    0.1740  -21.2604 O   0  0  0  0  0  0  0  0  0  0  0  0
   -9.7286   -1.6369  -23.3343 C   0  0  0  0  0  0  0  0  0  0  0  0
  -10.3300   -0.2859  -23.0836 C   0  0  0  0  0  0  0  0  0  0  0  0
  -10.3243   -2.5424  -24.3712 C   0  0  0  0  0  0  0  0  0  0  0  0
   -5.6768   -0.6320  -20.3491 C   0  0  0  0  0  0  0  0  0  0  0  0
   -5.5883   -0.1256  -18.9399 C   0  0  0  0  0  0  0  0  0  0  0  0
   -4.5266    0.8651  -18.5642 N   0  0  0  0  0  0  0  0  0  0  0  0
   -3.5533    1.3495  -19.5977 C   0  0  0  0  0  0  0  0  0  0  0  0
   -3.6418    0.8431  -21.0069 C   0  0  0  0  0  0  0  0  0  0  0  0
   -2.6685    1.3275  -22.0403 C   0  0  0  0  0  0  0  0  0  0  0  0
   -2.7570    0.8212  -23.4495 C   0  0  0  0  0  0  0  0  0  0  0  0
   -3.8187   -0.1695  -23.8252 C   0  0  0  0  0  0  0  0  0  0  0  0
   -4.7920   -0.6539  -22.7918 C   0  0  0  0  0  0  0  0  0  0  0  0
   -4.7035   -0.1476  -21.3826 C   0  0  0  0  0  0  0  0  0  0  0  0
  3  2  1  0  0  0
  3  4  1  0  0  0
  4  5  1  0  0  0
  5  6  1  0  0  0
  6  7  1  0  0  0
  7  8  2  0  0  0
  7  1  1  0  0  0
  1 12  1  0  0  0
 12 13  2  0  0  0
 13 14  1  0  0  0
 14 15  2  0  0  0
 15 16  1  0  0  0
 16 17  2  0  0  0
 17 18  1  0  0  0
 18 19  2  0  0  0
 19 20  1  0  0  0
 20 21  2  0  0  0
  6  9  1  0  0  0
  9 10  1  0  0  0
  9 11  1  0  0  0
 11  3  1  0  0  0
 21 12  1  0  0  0
 21 16  1  0  0  0
M  END
> <minimizedAffinity>
-6.35330

> <CNNscore>
0.4833449125

> <CNNaffinity>
4.7707581520

> <CNN_VS>
2.3059217930

> <CNNaffinity_variance>
0.4224688113

$$$$



 21 23  0  0  0  0  0  0  0  0999 V2000
   -8.0599    0.2936  -22.1798 C   0  0  0  0  0  0  0  0  0  0  0  0
   -1.9491    2.9139  -20.4358 C   0  0  0  0  0  0  0  0  0  0  0  0
   -3.2588    2.1957  -20.5733 C   0  0  0  0  0  0  0  0  0  0  0  0
   -4.1309    2.4483  -21.7673 C   0  0  0  0  0  0  0  0  0  0  0  0
   -5.4406    1.7300  -21.9048 C   0  0  0  0  0  0  0  0  0  0  0  0
   -5.8781    0.7592  -20.8484 N   0  0  0  0  0  0  0  0  0  0  0  0
   -7.1878    0.0410  -20.9859 C   0  0  0  0  0  0  0  0  0  0  0  0
   -7.6253   -0.9299  -19.9294 O   0  0  0  0  0  0  0  0  0  0  0  0
   -5.0059    0.5066  -19.6544 C   0  0  0  0  0  0  0  0  0  0  0  0
   -5.4434   -0.4642  -18.5979 C   0  0  0  0  0  0  0  0  0  0  0  0
   -3.6963    1.2248  -19.5168 C   0  0  0  0  0  0  0  0  0  0  0  0
   -9.1683   -0.6602  -22.5142 C   0  0  0  0  0  0  0  0  0  0  0  0
   -8.9210   -2.1392  -22.4796 C   0  0  0  0  0  0  0  0  0  0  0  0
  -10.0294   -3.0930  -22.8140 N   0  0  0  0  0  0  0  0  0  0  0  0
  -11.3851   -2.5677  -23.1829 C   0  0  0  0  0  0  0  0  0  0  0  0
  -11.6324   -1.0886  -23.2175 C   0  0  0  0  0  0  0  0  0  0  0  0
  -12.9881   -0.5633  -23.5864 C   0  0  0  0  0  0  0  0  0  0  0  0
  -13.2354    0.9157  -23.6209 C   0  0  0  0  0  0  0  0  0  0  0  0
  -12.1270    1.8695  -23.2865 C   0  0  0  0  0  0  0  0  0  0  0  0
  -10.7714    1.3442  -22.9176 C   0  0  0  0  0  0  0  0  0  0  0  0
  -10.5241   -0.1349  -22.8831 C   0  0  0  0  0  0  0  0  0  0  0  0
  3  2  1  0  0  0
  3  4  1  0  0  0
  4  5  1  0  0  0
  5  6  1  0  0  0
  6  7  1  0  0  0
  7  8  2  0  0  0
  7  1  1  0  0  0
  1 12  1  0  0  0
 12 13  2  0  0  0
 13 14  1  0  0  0
 14 15  2  0  0  0
 15 16  1  0  0  0
 16 17  2  0  0  0
 17 18  1  0  0  0
 18 19  2  0  0  0
 19 20  1  0  0  0
 20 21  2  0  0  0
  6  9  1  0  0  0
  9 10  1  0  0  0
  9 11  1  0  0  0
 11  3  1  0  0  0
 21 12  1  0  0  0
 21 16  1  0  0  0
M  END
> <minimizedAffinity>
-7.08531

> <CNNscore>
0.4535944462

> <CNNaffinity>
4.7565712929

> <CNN_VS>
2.1575543880

> <CNNaffinity_variance>
0.3259103894

$$$$



 21 23  0  0  0  0  0  0  0  0999 V2000
   -8.8610   -1.8531  -23.7727 C   0  0  0  0  0  0  0  0  0  0  0  0
   -8.4216   -6.8062  -28.5186 C   0  0  0  0  0  0  0  0  0  0  0  0
   -8.3655   -5.9041  -27.3216 C   0  0  0  0  0  0  0  0  0  0  0  0
   -9.0292   -4.5596  -27.3640 C   0  0  0  0  0  0  0  0  0  0  0  0
   -8.9731   -3.6574  -26.1669 C   0  0  0  0  0  0  0  0  0  0  0  0
   -8.2534   -4.0998  -24.9274 N   0  0  0  0  0  0  0  0  0  0  0  0
   -8.1974   -3.1976  -23.7304 C   0  0  0  0  0  0  0  0  0  0  0  0
   -7.4776   -3.6400  -22.4909 O   0  0  0  0  0  0  0  0  0  0  0  0
   -7.5897   -5.4443  -24.8850 C   0  0  0  0  0  0  0  0  0  0  0  0
   -6.8700   -5.8867  -23.6455 C   0  0  0  0  0  0  0  0  0  0  0  0
   -7.6458   -6.3465  -26.0821 C   0  0  0  0  0  0  0  0  0  0  0  0
  -10.3184   -1.7253  -23.4415 C   0  0  0  0  0  0  0  0  0  0  0  0
  -11.0976   -2.9315  -23.0082 C   0  0  0  0  0  0  0  0  0  0  0  0
  -12.5550   -2.8037  -22.6770 N   0  0  0  0  0  0  0  0  0  0  0  0
  -13.2332   -1.4697  -22.7791 C   0  0  0  0  0  0  0  0  0  0  0  0
  -12.4539   -0.2634  -23.2125 C   0  0  0  0  0  0  0  0  0  0  0  0
  -13.1321    1.0706  -23.3146 C   0  0  0  0  0  0  0  0  0  0  0  0
  -12.3529    2.2768  -23.7480 C   0  0  0  0  0  0  0  0  0  0  0  0
  -10.8955    2.1490  -24.0792 C   0  0  0  0  0  0  0  0  0  0  0  0
  -10.2173    0.8150  -23.9770 C   0  0  0  0  0  0  0  0  0  0  0  0
  -10.9966   -0.3912  -23.5437 C   0  0  0  0  0  0  0  0  0  0  0  0
  3  2  1  0  0  0
  3  4  1  0  0  0
  4  5  1  0  0  0
  5  6  1  0  0  0
  6  7  1  0  0  0
  7  8  2  0  0  0
  7  1  1  0  0  0
  1 12  1  0  0  0
 12 13  2  0  0  0
 13 14  1  0  0  0
 14 15  2  0  0  0
 15 16  1  0  0  0
 16 17  2  0  0  0
 17 18  1  0  0  0
 18 19  2  0  0  0
 19 20  1  0  0  0
 20 21  2  0  0  0
  6  9  1  0  0  0
  9 10  1  0  0  0
  9 11  1  0  0  0
 11  3  1  0  0  0
 21 12  1  0  0  0
 21 16  1  0  0  0
M  END
> <minimizedAffinity>
-6.16168

> <CNNscore>
0.4487814605

> <CNNaffinity>
4.8841676712

> <CNN_VS>
2.1919238567

> <CNNaffinity_variance>
0.2704093456

$$$$



 21 23  0  0  0  0  0  0  0  0999 V2000
   -7.9365   -1.0948  -21.2246 C   0  0  0  0  0  0  0  0  0  0  0  0
   -1.9869    2.3467  -21.3116 C   0  0  0  0  0  0  0  0  0  0  0  0
   -3.2454    1.5880  -21.0108 C   0  0  0  0  0  0  0  0  0  0  0  0
   -4.1610    1.1813  -22.1271 C   0  0  0  0  0  0  0  0  0  0  0  0
   -5.4195    0.4226  -21.8263 C   0  0  0  0  0  0  0  0  0  0  0  0
   -5.7624    0.0706  -20.4091 N   0  0  0  0  0  0  0  0  0  0  0  0
   -7.0209   -0.6881  -20.1083 C   0  0  0  0  0  0  0  0  0  0  0  0
   -7.3639   -1.0401  -18.6910 O   0  0  0  0  0  0  0  0  0  0  0  0
   -4.8468    0.4773  -19.2927 C   0  0  0  0  0  0  0  0  0  0  0  0
   -5.1898    0.1253  -17.8755 C   0  0  0  0  0  0  0  0  0  0  0  0
   -3.5883    1.2360  -19.5935 C   0  0  0  0  0  0  0  0  0  0  0  0
   -7.6716   -2.3576  -21.9896 C   0  0  0  0  0  0  0  0  0  0  0  0
   -6.4048   -3.1254  -21.7540 C   0  0  0  0  0  0  0  0  0  0  0  0
   -6.1398   -4.3882  -22.5190 N   0  0  0  0  0  0  0  0  0  0  0  0
   -7.1417   -4.8831  -23.5196 C   0  0  0  0  0  0  0  0  0  0  0  0
   -8.4086   -4.1153  -23.7553 C   0  0  0  0  0  0  0  0  0  0  0  0
   -9.4104   -4.6102  -24.7559 C   0  0  0  0  0  0  0  0  0  0  0  0
  -10.6772   -3.8423  -24.9915 C   0  0  0  0  0  0  0  0  0  0  0  0
  -10.9422   -2.5795  -24.2265 C   0  0  0  0  0  0  0  0  0  0  0  0
   -9.9403   -2.0846  -23.2259 C   0  0  0  0  0  0  0  0  0  0  0  0
   -8.6735   -2.8525  -22.9903 C   0  0  0  0  0  0  0  0  0  0  0  0
  3  2  1  0  0  0
  3  4  1  0  0  0
  4  5  1  0  0  0
  5  6  1  0  0  0
  6  7  1  0  0  0
  7  8  2  0  0  0
  7  1  1  0  0  0
  1 12  1  0  0  0
 12 13  2  0  0  0
 13 14  1  0  0  0
 14 15  2  0  0  0
 15 16  1  0  0  0
 16 17  2  0  0  0
 17 18  1  0  0  0
 18 19  2  0  0  0
 19 20  1  0  0  0
 20 21  2  0  0  0
  6  9  1  0  0  0
  9 10  1  0  0  0
  9 11  1  0  0  0
 11  3  1  0  0  0
 21 12  1  0  0  0
 21 16  1  0  0  0
M  END
> <minimizedAffinity>
-6.74459

> <CNNscore>
0.4346617460

> <CNNaffinity>
4.8577375412

> <CNN_VS>
2.1114726067

> <CNNaffinity_variance>
0.5807828903

$$$$



 21 23  0  0  0  0  0  0  0  0999 V2000
   -7.1011   -1.1384  -22.5436 C   0  0  0  0  0  0  0  0  0  0  0  0
  -13.1946    1.8627  -23.5985 C   0  0  0  0  0  0  0  0  0  0  0  0
  -12.0122    0.9647  -23.3850 C   0  0  0  0  0  0  0  0  0  0  0  0
  -10.6483    1.5556  -23.1841 C   0  0  0  0  0  0  0  0  0  0  0  0
   -9.4659    0.6576  -22.9706 C   0  0  0  0  0  0  0  0  0  0  0  0
   -9.6474   -0.8313  -22.9580 N   0  0  0  0  0  0  0  0  0  0  0  0
   -8.4651   -1.7293  -22.7445 C   0  0  0  0  0  0  0  0  0  0  0  0
   -8.6467   -3.2183  -22.7320 O   0  0  0  0  0  0  0  0  0  0  0  0
  -11.0115   -1.4223  -23.1590 C   0  0  0  0  0  0  0  0  0  0  0  0
  -11.1930   -2.9112  -23.1464 C   0  0  0  0  0  0  0  0  0  0  0  0
  -12.1938   -0.5243  -23.3725 C   0  0  0  0  0  0  0  0  0  0  0  0
   -6.6397   -0.7684  -21.1651 C   0  0  0  0  0  0  0  0  0  0  0  0
   -7.4556   -1.1630  -19.9699 C   0  0  0  0  0  0  0  0  0  0  0  0
   -6.9941   -0.7930  -18.5915 N   0  0  0  0  0  0  0  0  0  0  0  0
   -5.7168   -0.0283  -18.4082 C   0  0  0  0  0  0  0  0  0  0  0  0
   -4.9009    0.3665  -19.6034 C   0  0  0  0  0  0  0  0  0  0  0  0
   -3.6236    1.1312  -19.4202 C   0  0  0  0  0  0  0  0  0  0  0  0
   -2.8077    1.5259  -20.6153 C   0  0  0  0  0  0  0  0  0  0  0  0
   -3.2691    1.1559  -21.9938 C   0  0  0  0  0  0  0  0  0  0  0  0
   -4.5464    0.3911  -22.1771 C   0  0  0  0  0  0  0  0  0  0  0  0
   -5.3623   -0.0036  -20.9819 C   0  0  0  0  0  0  0  0  0  0  0  0
  3  2  1  0  0  0
  3  4  1  0  0  0
  4  5  1  0  0  0
  5  6  1  0  0  0
  6  7  1  0  0  0
  7  8  2  0  0  0
  7  1  1  0  0  0
  1 12  1  0  0  0
 12 13  2  0  0  0
 13 14  1  0  0  0
 14 15  2  0  0  0
 15 16  1  0  0  0
 16 17  2  0  0  0
 17 18  1  0  0  0
 18 19  2  0  0  0
 19 20  1  0  0  0
 20 21  2  0  0  0
  6  9  1  0  0  0
  9 10  1  0  0  0
  9 11  1  0  0  0
 11  3  1  0  0  0
 21 12  1  0  0  0
 21 16  1  0  0  0
M  END
> <minimizedAffinity>
-7.21038

> <CNNscore>
0.3843197823

> <CNNaffinity>
4.8416099548

> <CNN_VS>
1.8607264757

> <CNNaffinity_variance>
0.4772844315

$$$$



 21 23  0  0  0  0  0  0  0  0999 V2000
   -9.6523   -1.6354  -23.5639 C   0  0  0  0  0  0  0  0  0  0  0  0
   -6.0338   -7.4615  -23.1018 C   0  0  0  0  0  0  0  0  0  0  0  0
   -6.9509   -6.3186  -23.4225 C   0  0  0  0  0  0  0  0  0  0  0  0
   -6.9009   -5.0639  -22.6020 C   0  0  0  0  0  0  0  0  0  0  0  0
   -7.8180   -3.9211  -22.9227 C   0  0  0  0  0  0  0  0  0  0  0  0
   -8.7851   -4.0329  -24.0638 N   0  0  0  0  0  0  0  0  0  0  0  0
   -9.7022   -2.8901  -24.3844 C   0  0  0  0  0  0  0  0  0  0  0  0
  -10.6694   -3.0020  -25.5256 O   0  0  0  0  0  0  0  0  0  0  0  0
   -8.8351   -5.2877  -24.8843 C   0  0  0  0  0  0  0  0  0  0  0  0
   -9.8022   -5.3995  -26.0254 C   0  0  0  0  0  0  0  0  0  0  0  0
   -7.9180   -6.4305  -24.5637 C   0  0  0  0  0  0  0  0  0  0  0  0
  -10.8283   -0.7045  -23.5447 C   0  0  0  0  0  0  0  0  0  0  0  0
  -12.2058   -1.2414  -23.2913 C   0  0  0  0  0  0  0  0  0  0  0  0
  -13.3818   -0.3105  -23.2720 N   0  0  0  0  0  0  0  0  0  0  0  0
  -13.1804    1.1573  -23.5062 C   0  0  0  0  0  0  0  0  0  0  0  0
  -11.8028    1.6943  -23.7597 C   0  0  0  0  0  0  0  0  0  0  0  0
  -11.6014    3.1621  -23.9939 C   0  0  0  0  0  0  0  0  0  0  0  0
  -10.2240    3.6990  -24.2474 C   0  0  0  0  0  0  0  0  0  0  0  0
   -9.0479    2.7681  -24.2666 C   0  0  0  0  0  0  0  0  0  0  0  0
   -9.2494    1.3003  -24.0324 C   0  0  0  0  0  0  0  0  0  0  0  0
  -10.6268    0.7634  -23.7789 C   0  0  0  0  0  0  0  0  0  0  0  0
  3  2  1  0  0  0
  3  4  1  0  0  0
  4  5  1  0  0  0
  5  6  1  0  0  0
  6  7  1  0  0  0
  7  8  2  0  0  0
  7  1  1  0  0  0
  1 12  1  0  0  0
 12 13  2  0  0  0
 13 14  1  0  0  0
 14 15  2  0  0  0
 15 16  1  0  0  0
 16 17  2  0  0  0
 17 18  1  0  0  0
 18 19  2  0  0  0
 19 20  1  0  0  0
 20 21  2  0  0  0
  6  9  1  0  0  0
  9 10  1  0  0  0
  9 11  1  0  0  0
 11  3  1  0  0  0
 21 12  1  0  0  0
 21 16  1  0  0  0
M  END
> <minimizedAffinity>
-6.32717

> <CNNscore>
0.3656129241

> <CNNaffinity>
4.8503131866

> <CNN_VS>
1.7733372450

> <CNNaffinity_variance>
0.4107871652

$$$$
