


 42 47  0  0  0  0  0  0  0  0999 V2000
   -7.0954   -0.9445  -22.9892 N   0  0  0  0  0  0  0  0  0  0  0  0
   -7.5337    0.4735  -23.2065 C   0  0  0  0  0  0  0  0  0  0  0  0
   -8.9944    0.8008  -23.3018 C   0  0  0  0  0  0  0  0  0  0  0  0
  -10.4119    1.2777  -23.4171 C   0  0  0  0  0  0  0  0  0  0  0  0
  -11.5457    0.8414  -23.3924 O   0  0  0  0  0  0  0  0  0  0  0  0
  -10.3857    2.7625  -23.6285 N   0  0  0  0  0  0  0  0  0  0  0  0
   -8.9520    3.2033  -23.6439 C   0  0  0  0  0  0  0  0  0  0  0  0
   -8.0922    1.9909  -23.4420 C   0  0  0  0  0  0  0  0  0  0  0  0
  -10.0170   -0.2900  -23.1799 C   0  0  0  0  0  0  0  0  0  0  0  0
  -11.4777    0.0373  -23.2752 C   0  0  0  0  0  0  0  0  0  0  0  0
  -12.5001   -1.0534  -23.1533 C   0  0  0  0  0  0  0  0  0  0  0  0
  -13.9609   -0.7261  -23.2486 Cl  0  0  0  0  0  0  0  0  0  0  0  0
  -12.0618   -2.4714  -22.9360 C   0  0  0  0  0  0  0  0  0  0  0  0
  -10.6011   -2.7987  -22.8406 C   0  0  0  0  0  0  0  0  0  0  0  0
   -9.5787   -1.7080  -22.9626 C   0  0  0  0  0  0  0  0  0  0  0  0
   -8.1179   -2.0352  -22.8672 C   0  0  0  0  0  0  0  0  0  0  0  0
   -7.6796   -3.4532  -22.6499 O   0  0  0  0  0  0  0  0  0  0  0  0
  -11.5830    3.6506  -23.7953 C   0  0  0  0  0  0  0  0  0  0  0  0
  -12.5191    3.8715  -22.6442 C   0  0  0  0  0  0  0  0  0  0  0  0
  -13.7164    4.7596  -22.8110 N   0  0  0  0  0  0  0  0  0  0  0  0
  -13.9776    5.4267  -24.1288 C   0  0  0  0  0  0  0  0  0  0  0  0
  -13.0415    5.2057  -25.2799 C   0  0  0  0  0  0  0  0  0  0  0  0
  -13.3028    5.8729  -26.5978 C   0  0  0  0  0  0  0  0  0  0  0  0
  -12.3666    5.6518  -27.7488 C   0  0  0  0  0  0  0  0  0  0  0  0
  -11.1693    4.7638  -27.5821 C   0  0  0  0  0  0  0  0  0  0  0  0
  -10.9081    4.0967  -26.2642 C   0  0  0  0  0  0  0  0  0  0  0  0
  -11.8442    4.3176  -25.1131 C   0  0  0  0  0  0  0  0  0  0  0  0
   -5.6346   -1.2718  -22.8939 C   0  0  0  0  0  0  0  0  0  0  0  0
   -3.9255   -2.0315  -26.3941 C   0  0  0  0  0  0  0  0  0  0  0  0
   -4.8051   -2.1685  -25.1868 N   0  0  0  0  0  0  0  0  0  0  0  0
   -4.7550   -1.1347  -24.1011 C   0  0  0  0  0  0  0  0  0  0  0  0
   -3.8253    0.0361  -24.2227 O   0  0  0  0  0  0  0  0  0  0  0  0
   -5.4153   -2.9370  -25.1070 H   0  0  0  0  0  0  0  0  0  0  0  0
   -6.5932    1.9719  -23.3895 C   0  0  0  0  0  0  0  0  0  0  0  0
   -5.8549    3.0489  -22.6514 N   0  0  0  0  0  0  0  0  0  0  0  0
   -6.0639    3.9955  -22.8233 H   0  0  0  0  0  0  0  0  0  0  0  0
   -4.7981    2.6838  -21.6515 C   0  0  0  0  0  0  0  0  0  0  0  0
   -3.4971    3.4301  -21.6290 N   0  0  0  0  0  0  0  0  0  0  0  0
   -2.4403    3.0651  -20.6291 C   0  0  0  0  0  0  0  0  0  0  0  0
   -2.6844    1.9537  -19.6517 N   0  0  0  0  0  0  0  0  0  0  0  0
   -3.9854    1.2074  -19.6742 C   0  0  0  0  0  0  0  0  0  0  0  0
   -5.0422    1.5725  -20.6741 N   0  0  0  0  0  0  0  0  0  0  0  0
 29 30  1  0  0  0
 30 31  1  0  0  0
 31 32  2  0  0  0
 31 28  1  0  0  0
 28  1  1  0  0  0
  1  2  1  0  0  0
  3  2  1  0  0  0
  3  4  1  0  0  0
  4  5  2  0  0  0
  4  6  1  0  0  0
  6 18  1  0  0  0
 18 19  2  0  0  0
 19 20  1  0  0  0
 20 21  2  0  0  0
 21 22  1  0  0  0
 22 23  2  0  0  0
 23 24  1  0  0  0
 24 25  2  0  0  0
 25 26  1  0  0  0
 26 27  2  0  0  0
  6  7  1  0  0  0
  7  8  1  0  0  0
  8 34  1  0  0  0
 34 35  1  0  0  0
 35 37  1  0  0  0
 37 38  2  0  0  0
 38 39  1  0  0  0
 39 40  2  0  0  0
 40 41  1  0  0  0
 41 42  2  0  0  0
  3  9  1  0  0  0
  9 10  2  0  0  0
 10 11  1  0  0  0
 11 12  1  0  0  0
 11 13  2  0  0  0
 13 14  1  0  0  0
 14 15  2  0  0  0
 15 16  1  0  0  0
 16 17  2  0  0  0
 16  1  1  0  0  0
  8  3  1  0  0  0
 42 37  1  0  0  0
 15  9  1  0  0  0
 27 18  1  0  0  0
 27 22  1  0  0  0
 30 33  1  0  0  0
 35 36  1  0  0  0
M  END
> <minimizedAffinity>
-8.03853

> <CNNscore>
0.6202353835

> <CNNaffinity>
6.9335279465

> <CNN_VS>
4.3004193306

> <CNNaffinity_variance>
0.1130407304

$$$$



 42 47  0  0  0  0  0  0  0  0999 V2000
   -5.3565   -6.0812  -23.4877 N   0  0  0  0  0  0  0  0  0  0  0  0
   -5.9426   -4.8119  -22.9442 C   0  0  0  0  0  0  0  0  0  0  0  0
   -7.0049   -4.0860  -23.7152 C   0  0  0  0  0  0  0  0  0  0  0  0
   -8.0680   -3.2546  -24.3699 C   0  0  0  0  0  0  0  0  0  0  0  0
   -8.7527   -3.2411  -25.3736 O   0  0  0  0  0  0  0  0  0  0  0  0
   -8.3510   -2.0800  -23.4810 N   0  0  0  0  0  0  0  0  0  0  0  0
   -7.4627   -2.1853  -22.2769 C   0  0  0  0  0  0  0  0  0  0  0  0
   -6.6308   -3.4251  -22.4217 C   0  0  0  0  0  0  0  0  0  0  0  0
   -7.4812   -4.6293  -25.0298 C   0  0  0  0  0  0  0  0  0  0  0  0
   -8.5435   -3.9034  -25.8008 C   0  0  0  0  0  0  0  0  0  0  0  0
   -9.0197   -4.4468  -27.1153 C   0  0  0  0  0  0  0  0  0  0  0  0
  -10.0820   -3.7209  -27.8864 Cl  0  0  0  0  0  0  0  0  0  0  0  0
   -8.4336   -5.7161  -27.6587 C   0  0  0  0  0  0  0  0  0  0  0  0
   -7.3713   -6.4421  -26.8877 C   0  0  0  0  0  0  0  0  0  0  0  0
   -6.8951   -5.8987  -25.5732 C   0  0  0  0  0  0  0  0  0  0  0  0
   -5.8327   -6.6246  -24.8021 C   0  0  0  0  0  0  0  0  0  0  0  0
   -5.2466   -7.8939  -25.3456 O   0  0  0  0  0  0  0  0  0  0  0  0
   -9.3473   -0.9911  -23.7491 C   0  0  0  0  0  0  0  0  0  0  0  0
   -8.8992    0.2997  -24.3679 C   0  0  0  0  0  0  0  0  0  0  0  0
   -9.8955    1.3885  -24.6360 N   0  0  0  0  0  0  0  0  0  0  0  0
  -11.3398    1.1865  -24.2853 C   0  0  0  0  0  0  0  0  0  0  0  0
  -11.7879   -0.1044  -23.6665 C   0  0  0  0  0  0  0  0  0  0  0  0
  -13.2323   -0.3064  -23.3158 C   0  0  0  0  0  0  0  0  0  0  0  0
  -13.6803   -1.5973  -22.6970 C   0  0  0  0  0  0  0  0  0  0  0  0
  -12.6840   -2.6862  -22.4289 C   0  0  0  0  0  0  0  0  0  0  0  0
  -11.2397   -2.4841  -22.7796 C   0  0  0  0  0  0  0  0  0  0  0  0
  -10.7916   -1.1932  -23.3984 C   0  0  0  0  0  0  0  0  0  0  0  0
   -4.2942   -6.8071  -22.7165 C   0  0  0  0  0  0  0  0  0  0  0  0
   -1.2622   -6.6489  -25.2723 C   0  0  0  0  0  0  0  0  0  0  0  0
   -2.6107   -6.4191  -24.6570 N   0  0  0  0  0  0  0  0  0  0  0  0
   -2.9456   -7.0370  -23.3319 C   0  0  0  0  0  0  0  0  0  0  0  0
   -1.9320   -7.8848  -22.6220 O   0  0  0  0  0  0  0  0  0  0  0  0
   -3.2760   -5.8626  -25.1228 H   0  0  0  0  0  0  0  0  0  0  0  0
   -5.6049   -3.9175  -21.4444 C   0  0  0  0  0  0  0  0  0  0  0  0
   -5.6494   -3.4610  -20.0164 N   0  0  0  0  0  0  0  0  0  0  0  0
   -5.8947   -4.0950  -19.3043 H   0  0  0  0  0  0  0  0  0  0  0  0
   -5.3202   -2.0383  -19.6731 C   0  0  0  0  0  0  0  0  0  0  0  0
   -4.5901   -1.1780  -20.6614 N   0  0  0  0  0  0  0  0  0  0  0  0
   -4.2609    0.2445  -20.3182 C   0  0  0  0  0  0  0  0  0  0  0  0
   -4.6619    0.8069  -18.9867 N   0  0  0  0  0  0  0  0  0  0  0  0
   -5.3921   -0.0534  -17.9984 C   0  0  0  0  0  0  0  0  0  0  0  0
   -5.7213   -1.4760  -18.3416 N   0  0  0  0  0  0  0  0  0  0  0  0
 29 30  1  0  0  0
 30 31  1  0  0  0
 31 32  2  0  0  0
 31 28  1  0  0  0
 28  1  1  0  0  0
  1  2  1  0  0  0
  3  2  1  0  0  0
  3  4  1  0  0  0
  4  5  2  0  0  0
  4  6  1  0  0  0
  6 18  1  0  0  0
 18 19  2  0  0  0
 19 20  1  0  0  0
 20 21  2  0  0  0
 21 22  1  0  0  0
 22 23  2  0  0  0
 23 24  1  0  0  0
 24 25  2  0  0  0
 25 26  1  0  0  0
 26 27  2  0  0  0
  6  7  1  0  0  0
  7  8  1  0  0  0
  8 34  1  0  0  0
 34 35  1  0  0  0
 35 37  1  0  0  0
 37 38  2  0  0  0
 38 39  1  0  0  0
 39 40  2  0  0  0
 40 41  1  0  0  0
 41 42  2  0  0  0
  3  9  1  0  0  0
  9 10  2  0  0  0
 10 11  1  0  0  0
 11 12  1  0  0  0
 11 13  2  0  0  0
 13 14  1  0  0  0
 14 15  2  0  0  0
 15 16  1  0  0  0
 16 17  2  0  0  0
 16  1  1  0  0  0
  8  3  1  0  0  0
 42 37  1  0  0  0
 15  9  1  0  0  0
 27 18  1  0  0  0
 27 22  1  0  0  0
 30 33  1  0  0  0
 35 36  1  0  0  0
M  END
> <minimizedAffinity>
-8.39653

> <CNNscore>
0.3295900226

> <CNNaffinity>
6.8000526428

> <CNN_VS>
2.2412295341

> <CNNaffinity_variance>
0.2252995223

$$$$



 42 47  0  0  0  0  0  0  0  0999 V2000
   -7.6562    1.9693  -23.3091 N   0  0  0  0  0  0  0  0  0  0  0  0
   -6.9512    0.6458  -23.3449 C   0  0  0  0  0  0  0  0  0  0  0  0
   -7.7441   -0.6240  -23.4383 C   0  0  0  0  0  0  0  0  0  0  0  0
   -8.3997   -1.9701  -23.5299 C   0  0  0  0  0  0  0  0  0  0  0  0
   -9.5083   -2.4627  -23.5983 O   0  0  0  0  0  0  0  0  0  0  0  0
   -7.3205   -3.0118  -23.5369 N   0  0  0  0  0  0  0  0  0  0  0  0
   -5.9978   -2.3097  -23.4497 C   0  0  0  0  0  0  0  0  0  0  0  0
   -6.2597   -0.8339  -23.3888 C   0  0  0  0  0  0  0  0  0  0  0  0
   -9.2421   -0.5704  -23.4960 C   0  0  0  0  0  0  0  0  0  0  0  0
  -10.0349   -1.8403  -23.5894 C   0  0  0  0  0  0  0  0  0  0  0  0
  -11.5328   -1.7866  -23.6470 C   0  0  0  0  0  0  0  0  0  0  0  0
  -12.3258   -3.0565  -23.7404 Cl  0  0  0  0  0  0  0  0  0  0  0  0
  -12.2379   -0.4631  -23.6112 C   0  0  0  0  0  0  0  0  0  0  0  0
  -11.4450    0.8068  -23.5178 C   0  0  0  0  0  0  0  0  0  0  0  0
   -9.9471    0.7531  -23.4602 C   0  0  0  0  0  0  0  0  0  0  0  0
   -9.1541    2.0230  -23.3668 C   0  0  0  0  0  0  0  0  0  0  0  0
   -9.8591    3.3465  -23.3310 O   0  0  0  0  0  0  0  0  0  0  0  0
   -7.5276   -4.4953  -23.6172 C   0  0  0  0  0  0  0  0  0  0  0  0
   -7.1735   -5.3663  -22.4484 C   0  0  0  0  0  0  0  0  0  0  0  0
   -7.3806   -6.8498  -22.5286 N   0  0  0  0  0  0  0  0  0  0  0  0
   -7.9417   -7.4622  -23.7776 C   0  0  0  0  0  0  0  0  0  0  0  0
   -8.2958   -6.5912  -24.9464 C   0  0  0  0  0  0  0  0  0  0  0  0
   -8.8569   -7.2037  -26.1954 C   0  0  0  0  0  0  0  0  0  0  0  0
   -9.2109   -6.3327  -27.3641 C   0  0  0  0  0  0  0  0  0  0  0  0
   -9.0039   -4.8492  -27.2839 C   0  0  0  0  0  0  0  0  0  0  0  0
   -8.4427   -4.2367  -26.0349 C   0  0  0  0  0  0  0  0  0  0  0  0
   -8.0887   -5.1078  -24.8661 C   0  0  0  0  0  0  0  0  0  0  0  0
   -6.8632    3.2392  -23.2157 C   0  0  0  0  0  0  0  0  0  0  0  0
   -3.1884    3.4436  -21.7311 C   0  0  0  0  0  0  0  0  0  0  0  0
   -4.6845    3.4988  -21.8244 N   0  0  0  0  0  0  0  0  0  0  0  0
   -5.3671    3.1840  -23.1224 C   0  0  0  0  0  0  0  0  0  0  0  0
   -4.5537    2.8141  -24.3272 O   0  0  0  0  0  0  0  0  0  0  0  0
   -5.2184    3.7415  -21.0337 H   0  0  0  0  0  0  0  0  0  0  0  0
   -5.2196    0.2429  -23.2948 C   0  0  0  0  0  0  0  0  0  0  0  0
   -4.1915    0.1994  -22.2035 N   0  0  0  0  0  0  0  0  0  0  0  0
   -3.2472    0.3868  -22.4091 H   0  0  0  0  0  0  0  0  0  0  0  0
   -4.6022   -0.1296  -20.7988 C   0  0  0  0  0  0  0  0  0  0  0  0
   -5.1731   -1.4798  -20.4810 N   0  0  0  0  0  0  0  0  0  0  0  0
   -5.5837   -1.8088  -19.0765 C   0  0  0  0  0  0  0  0  0  0  0  0
   -5.4234   -0.7877  -17.9894 N   0  0  0  0  0  0  0  0  0  0  0  0
   -4.8525    0.5625  -18.3071 C   0  0  0  0  0  0  0  0  0  0  0  0
   -4.4418    0.8915  -19.7118 N   0  0  0  0  0  0  0  0  0  0  0  0
 29 30  1  0  0  0
 30 31  1  0  0  0
 31 32  2  0  0  0
 31 28  1  0  0  0
 28  1  1  0  0  0
  1  2  1  0  0  0
  3  2  1  0  0  0
  3  4  1  0  0  0
  4  5  2  0  0  0
  4  6  1  0  0  0
  6 18  1  0  0  0
 18 19  2  0  0  0
 19 20  1  0  0  0
 20 21  2  0  0  0
 21 22  1  0  0  0
 22 23  2  0  0  0
 23 24  1  0  0  0
 24 25  2  0  0  0
 25 26  1  0  0  0
 26 27  2  0  0  0
  6  7  1  0  0  0
  7  8  1  0  0  0
  8 34  1  0  0  0
 34 35  1  0  0  0
 35 37  1  0  0  0
 37 38  2  0  0  0
 38 39  1  0  0  0
 39 40  2  0  0  0
 40 41  1  0  0  0
 41 42  2  0  0  0
  3  9  1  0  0  0
  9 10  2  0  0  0
 10 11  1  0  0  0
 11 12  1  0  0  0
 11 13  2  0  0  0
 13 14  1  0  0  0
 14 15  2  0  0  0
 15 16  1  0  0  0
 16 17  2  0  0  0
 16  1  1  0  0  0
  8  3  1  0  0  0
 42 37  1  0  0  0
 15  9  1  0  0  0
 27 18  1  0  0  0
 27 22  1  0  0  0
 30 33  1  0  0  0
 35 36  1  0  0  0
M  END
> <minimizedAffinity>
-7.55953

> <CNNscore>
0.3161604106

> <CNNaffinity>
6.7196092606

> <CNN_VS>
2.1244745255

> <CNNaffinity_variance>
0.2639645636

$$$$



 42 47  0  0  0  0  0  0  0  0999 V2000
   -6.8790   -1.0811  -22.4719 N   0  0  0  0  0  0  0  0  0  0  0  0
   -7.0083    0.2270  -23.1945 C   0  0  0  0  0  0  0  0  0  0  0  0
   -8.3465    0.6731  -23.7043 C   0  0  0  0  0  0  0  0  0  0  0  0
   -9.6123    1.2478  -24.2677 C   0  0  0  0  0  0  0  0  0  0  0  0
  -10.7934    0.9799  -24.3655 O   0  0  0  0  0  0  0  0  0  0  0  0
   -9.2809    2.5661  -24.9019 N   0  0  0  0  0  0  0  0  0  0  0  0
   -7.8102    2.8062  -24.7304 C   0  0  0  0  0  0  0  0  0  0  0  0
   -7.2328    1.6363  -23.9902 C   0  0  0  0  0  0  0  0  0  0  0  0
   -9.5556   -0.1889  -23.4915 C   0  0  0  0  0  0  0  0  0  0  0  0
  -10.8939    0.2573  -24.0014 C   0  0  0  0  0  0  0  0  0  0  0  0
  -12.1028   -0.6047  -23.7886 C   0  0  0  0  0  0  0  0  0  0  0  0
  -13.4412   -0.1586  -24.2984 Cl  0  0  0  0  0  0  0  0  0  0  0  0
  -11.9735   -1.9129  -23.0661 C   0  0  0  0  0  0  0  0  0  0  0  0
  -10.6353   -2.3590  -22.5563 C   0  0  0  0  0  0  0  0  0  0  0  0
   -9.4263   -1.4970  -22.7690 C   0  0  0  0  0  0  0  0  0  0  0  0
   -8.0879   -1.9431  -22.2592 C   0  0  0  0  0  0  0  0  0  0  0  0
   -7.9586   -3.2513  -21.5367 O   0  0  0  0  0  0  0  0  0  0  0  0
  -10.2499    3.4833  -25.5872 C   0  0  0  0  0  0  0  0  0  0  0  0
  -10.1308    3.7344  -27.0613 C   0  0  0  0  0  0  0  0  0  0  0  0
  -11.0999    4.6515  -27.7466 N   0  0  0  0  0  0  0  0  0  0  0  0
  -12.1881    5.3176  -26.9579 C   0  0  0  0  0  0  0  0  0  0  0  0
  -12.3072    5.0665  -25.4839 C   0  0  0  0  0  0  0  0  0  0  0  0
  -13.3955    5.7327  -24.6952 C   0  0  0  0  0  0  0  0  0  0  0  0
  -13.5146    5.4815  -23.2211 C   0  0  0  0  0  0  0  0  0  0  0  0
  -12.5455    4.5644  -22.5358 C   0  0  0  0  0  0  0  0  0  0  0  0
  -11.4573    3.8983  -23.3245 C   0  0  0  0  0  0  0  0  0  0  0  0
  -11.3382    4.1494  -24.7985 C   0  0  0  0  0  0  0  0  0  0  0  0
   -5.5406   -1.5273  -21.9621 C   0  0  0  0  0  0  0  0  0  0  0  0
   -4.9689   -0.2005  -18.2658 C   0  0  0  0  0  0  0  0  0  0  0  0
   -5.2532   -0.2146  -19.7386 N   0  0  0  0  0  0  0  0  0  0  0  0
   -5.2563   -1.5131  -20.4894 C   0  0  0  0  0  0  0  0  0  0  0  0
   -4.9752   -2.7976  -19.7674 O   0  0  0  0  0  0  0  0  0  0  0  0
   -5.4377    0.6284  -20.2124 H   0  0  0  0  0  0  0  0  0  0  0  0
   -5.7941    1.4604  -23.6038 C   0  0  0  0  0  0  0  0  0  0  0  0
   -5.1986    2.3116  -22.5218 N   0  0  0  0  0  0  0  0  0  0  0  0
   -4.6227    1.9035  -21.8354 H   0  0  0  0  0  0  0  0  0  0  0  0
   -5.4806    3.7844  -22.4853 C   0  0  0  0  0  0  0  0  0  0  0  0
   -4.4522    4.7574  -22.9810 N   0  0  0  0  0  0  0  0  0  0  0  0
   -4.7342    6.2301  -22.9446 C   0  0  0  0  0  0  0  0  0  0  0  0
   -6.0446    6.7300  -22.4124 N   0  0  0  0  0  0  0  0  0  0  0  0
   -7.0729    5.7570  -21.9168 C   0  0  0  0  0  0  0  0  0  0  0  0
   -6.7910    4.2842  -21.9532 N   0  0  0  0  0  0  0  0  0  0  0  0
 29 30  1  0  0  0
 30 31  1  0  0  0
 31 32  2  0  0  0
 31 28  1  0  0  0
 28  1  1  0  0  0
  1  2  1  0  0  0
  3  2  1  0  0  0
  3  4  1  0  0  0
  4  5  2  0  0  0
  4  6  1  0  0  0
  6 18  1  0  0  0
 18 19  2  0  0  0
 19 20  1  0  0  0
 20 21  2  0  0  0
 21 22  1  0  0  0
 22 23  2  0  0  0
 23 24  1  0  0  0
 24 25  2  0  0  0
 25 26  1  0  0  0
 26 27  2  0  0  0
  6  7  1  0  0  0
  7  8  1  0  0  0
  8 34  1  0  0  0
 34 35  1  0  0  0
 35 37  1  0  0  0
 37 38  2  0  0  0
 38 39  1  0  0  0
 39 40  2  0  0  0
 40 41  1  0  0  0
 41 42  2  0  0  0
  3  9  1  0  0  0
  9 10  2  0  0  0
 10 11  1  0  0  0
 11 12  1  0  0  0
 11 13  2  0  0  0
 13 14  1  0  0  0
 14 15  2  0  0  0
 15 16  1  0  0  0
 16 17  2  0  0  0
 16  1  1  0  0  0
  8  3  1  0  0  0
 42 37  1  0  0  0
 15  9  1  0  0  0
 27 18  1  0  0  0
 27 22  1  0  0  0
 30 33  1  0  0  0
 35 36  1  0  0  0
M  END
> <minimizedAffinity>
-7.52709

> <CNNscore>
0.2443104982

> <CNNaffinity>
6.5057029724

> <CNN_VS>
1.5894114971

> <CNNaffinity_variance>
0.1814763993

$$$$



 42 47  0  0  0  0  0  0  0  0999 V2000
   -3.0682    0.7245  -24.1581 N   0  0  0  0  0  0  0  0  0  0  0  0
   -4.3828    0.9024  -23.4580 C   0  0  0  0  0  0  0  0  0  0  0  0
   -5.5506    0.0349  -23.8235 C   0  0  0  0  0  0  0  0  0  0  0  0
   -6.8002   -0.7541  -24.0804 C   0  0  0  0  0  0  0  0  0  0  0  0
   -7.2024   -1.6566  -24.7877 O   0  0  0  0  0  0  0  0  0  0  0  0
   -7.8684   -0.2437  -23.1593 N   0  0  0  0  0  0  0  0  0  0  0  0
   -7.2789    0.8608  -22.3330 C   0  0  0  0  0  0  0  0  0  0  0  0
   -5.8465    1.0329  -22.7435 C   0  0  0  0  0  0  0  0  0  0  0  0
   -5.4039   -1.0106  -24.8892 C   0  0  0  0  0  0  0  0  0  0  0  0
   -6.5716   -1.8781  -25.2547 C   0  0  0  0  0  0  0  0  0  0  0  0
   -6.4248   -2.9235  -26.3203 C   0  0  0  0  0  0  0  0  0  0  0  0
   -7.5927   -3.7910  -26.6859 Cl  0  0  0  0  0  0  0  0  0  0  0  0
   -5.1102   -3.1013  -27.0204 C   0  0  0  0  0  0  0  0  0  0  0  0
   -3.9424   -2.2338  -26.6549 C   0  0  0  0  0  0  0  0  0  0  0  0
   -4.0892   -1.1885  -25.5893 C   0  0  0  0  0  0  0  0  0  0  0  0
   -2.9214   -0.3209  -25.2238 C   0  0  0  0  0  0  0  0  0  0  0  0
   -1.6068   -0.4987  -25.9239 O   0  0  0  0  0  0  0  0  0  0  0  0
   -9.2784   -0.7489  -23.0786 C   0  0  0  0  0  0  0  0  0  0  0  0
   -9.5417   -2.1873  -22.7442 C   0  0  0  0  0  0  0  0  0  0  0  0
  -10.9517   -2.6926  -22.6635 N   0  0  0  0  0  0  0  0  0  0  0  0
  -12.0984   -1.7595  -22.9171 C   0  0  0  0  0  0  0  0  0  0  0  0
  -11.8351   -0.3211  -23.2515 C   0  0  0  0  0  0  0  0  0  0  0  0
  -12.9819    0.6120  -23.5051 C   0  0  0  0  0  0  0  0  0  0  0  0
  -12.7185    2.0503  -23.8394 C   0  0  0  0  0  0  0  0  0  0  0  0
  -11.3085    2.5556  -23.9201 C   0  0  0  0  0  0  0  0  0  0  0  0
  -10.1618    1.6225  -23.6665 C   0  0  0  0  0  0  0  0  0  0  0  0
  -10.4251    0.1841  -23.3322 C   0  0  0  0  0  0  0  0  0  0  0  0
   -1.9004    1.5921  -23.7926 C   0  0  0  0  0  0  0  0  0  0  0  0
   -1.1191    3.6203  -20.4720 C   0  0  0  0  0  0  0  0  0  0  0  0
   -1.4052    3.3156  -21.9127 N   0  0  0  0  0  0  0  0  0  0  0  0
   -1.6143    1.8967  -22.3520 C   0  0  0  0  0  0  0  0  0  0  0  0
   -1.5375    0.7825  -21.3506 O   0  0  0  0  0  0  0  0  0  0  0  0
   -1.4556    4.0469  -22.5698 H   0  0  0  0  0  0  0  0  0  0  0  0
   -4.8796    2.0283  -22.1740 C   0  0  0  0  0  0  0  0  0  0  0  0
   -4.3388    1.8401  -20.7877 N   0  0  0  0  0  0  0  0  0  0  0  0
   -3.6782    2.4745  -20.4267 H   0  0  0  0  0  0  0  0  0  0  0  0
   -4.8044    0.6853  -19.9513 C   0  0  0  0  0  0  0  0  0  0  0  0
   -4.9079   -0.6841  -20.5546 N   0  0  0  0  0  0  0  0  0  0  0  0
   -5.3735   -1.8389  -19.7183 C   0  0  0  0  0  0  0  0  0  0  0  0
   -5.7356   -1.6244  -18.2785 N   0  0  0  0  0  0  0  0  0  0  0  0
   -5.6321   -0.2550  -17.6751 C   0  0  0  0  0  0  0  0  0  0  0  0
   -5.1665    0.8998  -18.5116 N   0  0  0  0  0  0  0  0  0  0  0  0
 29 30  1  0  0  0
 30 31  1  0  0  0
 31 32  2  0  0  0
 31 28  1  0  0  0
 28  1  1  0  0  0
  1  2  1  0  0  0
  3  2  1  0  0  0
  3  4  1  0  0  0
  4  5  2  0  0  0
  4  6  1  0  0  0
  6 18  1  0  0  0
 18 19  2  0  0  0
 19 20  1  0  0  0
 20 21  2  0  0  0
 21 22  1  0  0  0
 22 23  2  0  0  0
 23 24  1  0  0  0
 24 25  2  0  0  0
 25 26  1  0  0  0
 26 27  2  0  0  0
  6  7  1  0  0  0
  7  8  1  0  0  0
  8 34  1  0  0  0
 34 35  1  0  0  0
 35 37  1  0  0  0
 37 38  2  0  0  0
 38 39  1  0  0  0
 39 40  2  0  0  0
 40 41  1  0  0  0
 41 42  2  0  0  0
  3  9  1  0  0  0
  9 10  2  0  0  0
 10 11  1  0  0  0
 11 12  1  0  0  0
 11 13  2  0  0  0
 13 14  1  0  0  0
 14 15  2  0  0  0
 15 16  1  0  0  0
 16 17  2  0  0  0
 16  1  1  0  0  0
  8  3  1  0  0  0
 42 37  1  0  0  0
 15  9  1  0  0  0
 27 18  1  0  0  0
 27 22  1  0  0  0
 30 33  1  0  0  0
 35 36  1  0  0  0
M  END
> <minimizedAffinity>
-7.62835

> <CNNscore>
0.1989050955

> <CNNaffinity>
6.1227455139

> <CNN_VS>
1.2178453207

> <CNNaffinity_variance>
0.4434216022

$$$$



 42 47  0  0  0  0  0  0  0  0999 V2000
   -6.7876   -0.6330  -22.3376 N   0  0  0  0  0  0  0  0  0  0  0  0
   -6.9895    0.6753  -23.0429 C   0  0  0  0  0  0  0  0  0  0  0  0
   -8.3402    1.0324  -23.5887 C   0  0  0  0  0  0  0  0  0  0  0  0
   -9.6264    1.5240  -24.1837 C   0  0  0  0  0  0  0  0  0  0  0  0
  -10.7812    1.1730  -24.3240 O   0  0  0  0  0  0  0  0  0  0  0  0
   -9.3726    2.8743  -24.7856 N   0  0  0  0  0  0  0  0  0  0  0  0
   -7.9294    3.2173  -24.5626 C   0  0  0  0  0  0  0  0  0  0  0  0
   -7.2914    2.0789  -23.8229 C   0  0  0  0  0  0  0  0  0  0  0  0
   -9.4891    0.0813  -23.4291 C   0  0  0  0  0  0  0  0  0  0  0  0
  -10.8399    0.4384  -23.9749 C   0  0  0  0  0  0  0  0  0  0  0  0
  -11.9886   -0.5128  -23.8153 C   0  0  0  0  0  0  0  0  0  0  0  0
  -13.3395   -0.1556  -24.3611 Cl  0  0  0  0  0  0  0  0  0  0  0  0
  -11.7867   -1.8211  -23.1100 C   0  0  0  0  0  0  0  0  0  0  0  0
  -10.4360   -2.1782  -22.5642 C   0  0  0  0  0  0  0  0  0  0  0  0
   -9.2872   -1.2271  -22.7238 C   0  0  0  0  0  0  0  0  0  0  0  0
   -7.9364   -1.5842  -22.1780 C   0  0  0  0  0  0  0  0  0  0  0  0
   -7.7344   -2.8925  -21.4727 O   0  0  0  0  0  0  0  0  0  0  0  0
  -10.3842    3.7311  -25.4873 C   0  0  0  0  0  0  0  0  0  0  0  0
  -10.2801    3.9555  -26.9668 C   0  0  0  0  0  0  0  0  0  0  0  0
  -11.2917    4.8124  -27.6685 N   0  0  0  0  0  0  0  0  0  0  0  0
  -12.4075    5.4448  -26.8907 C   0  0  0  0  0  0  0  0  0  0  0  0
  -12.5117    5.2204  -25.4112 C   0  0  0  0  0  0  0  0  0  0  0  0
  -13.6276    5.8529  -24.6334 C   0  0  0  0  0  0  0  0  0  0  0  0
  -13.7316    5.6285  -23.1540 C   0  0  0  0  0  0  0  0  0  0  0  0
  -12.7200    4.7716  -22.4523 C   0  0  0  0  0  0  0  0  0  0  0  0
  -11.6042    4.1392  -23.2300 C   0  0  0  0  0  0  0  0  0  0  0  0
  -11.5000    4.3636  -24.7095 C   0  0  0  0  0  0  0  0  0  0  0  0
   -5.4367   -0.9902  -21.7918 C   0  0  0  0  0  0  0  0  0  0  0  0
   -5.0113    0.0504  -17.9857 C   0  0  0  0  0  0  0  0  0  0  0  0
   -5.2186    0.1509  -19.4679 N   0  0  0  0  0  0  0  0  0  0  0  0
   -5.2293   -1.0906  -20.3096 C   0  0  0  0  0  0  0  0  0  0  0  0
   -5.0326   -2.4327  -19.6691 O   0  0  0  0  0  0  0  0  0  0  0  0
   -5.3477    1.0317  -19.8883 H   0  0  0  0  0  0  0  0  0  0  0  0
   -5.8565    2.0008  -23.3929 C   0  0  0  0  0  0  0  0  0  0  0  0
   -5.0106    3.2393  -23.3744 N   0  0  0  0  0  0  0  0  0  0  0  0
   -5.1393    3.9336  -24.0605 H   0  0  0  0  0  0  0  0  0  0  0  0
   -3.9686    3.4202  -22.3107 C   0  0  0  0  0  0  0  0  0  0  0  0
   -3.8230    2.3986  -21.2220 N   0  0  0  0  0  0  0  0  0  0  0  0
   -2.7811    2.5795  -20.1583 C   0  0  0  0  0  0  0  0  0  0  0  0
   -1.8845    3.7819  -20.1832 N   0  0  0  0  0  0  0  0  0  0  0  0
   -2.0301    4.8034  -21.2719 C   0  0  0  0  0  0  0  0  0  0  0  0
   -3.0721    4.6225  -22.3357 N   0  0  0  0  0  0  0  0  0  0  0  0
 29 30  1  0  0  0
 30 31  1  0  0  0
 31 32  2  0  0  0
 31 28  1  0  0  0
 28  1  1  0  0  0
  1  2  1  0  0  0
  3  2  1  0  0  0
  3  4  1  0  0  0
  4  5  2  0  0  0
  4  6  1  0  0  0
  6 18  1  0  0  0
 18 19  2  0  0  0
 19 20  1  0  0  0
 20 21  2  0  0  0
 21 22  1  0  0  0
 22 23  2  0  0  0
 23 24  1  0  0  0
 24 25  2  0  0  0
 25 26  1  0  0  0
 26 27  2  0  0  0
  6  7  1  0  0  0
  7  8  1  0  0  0
  8 34  1  0  0  0
 34 35  1  0  0  0
 35 37  1  0  0  0
 37 38  2  0  0  0
 38 39  1  0  0  0
 39 40  2  0  0  0
 40 41  1  0  0  0
 41 42  2  0  0  0
  3  9  1  0  0  0
  9 10  2  0  0  0
 10 11  1  0  0  0
 11 12  1  0  0  0
 11 13  2  0  0  0
 13 14  1  0  0  0
 14 15  2  0  0  0
 15 16  1  0  0  0
 16 17  2  0  0  0
 16  1  1  0  0  0
  8  3  1  0  0  0
 42 37  1  0  0  0
 15  9  1  0  0  0
 27 18  1  0  0  0
 27 22  1  0  0  0
 30 33  1  0  0  0
 35 36  1  0  0  0
M  END
> <minimizedAffinity>
-7.97446

> <CNNscore>
0.1603798717

> <CNNaffinity>
6.2604565620

> <CNN_VS>
1.0040512085

> <CNNaffinity_variance>
0.1383347064

$$$$



 42 47  0  0  0  0  0  0  0  0999 V2000
   -7.0555   -3.3377  -22.4154 N   0  0  0  0  0  0  0  0  0  0  0  0
   -7.8574   -2.4169  -23.2865 C   0  0  0  0  0  0  0  0  0  0  0  0
   -7.5793   -0.9430  -23.2760 C   0  0  0  0  0  0  0  0  0  0  0  0
   -7.4163    0.5451  -23.3712 C   0  0  0  0  0  0  0  0  0  0  0  0
   -6.7373    1.4388  -22.9057 O   0  0  0  0  0  0  0  0  0  0  0  0
   -8.4213    1.0593  -24.3589 N   0  0  0  0  0  0  0  0  0  0  0  0
   -9.2055   -0.1111  -24.8741 C   0  0  0  0  0  0  0  0  0  0  0  0
   -8.6851   -1.3485  -24.2048 C   0  0  0  0  0  0  0  0  0  0  0  0
   -6.4992   -0.3898  -22.3942 C   0  0  0  0  0  0  0  0  0  0  0  0
   -6.2211    1.0841  -22.3836 C   0  0  0  0  0  0  0  0  0  0  0  0
   -5.1410    1.6372  -21.5019 C   0  0  0  0  0  0  0  0  0  0  0  0
   -4.8628    3.1112  -21.4913 Cl  0  0  0  0  0  0  0  0  0  0  0  0
   -4.3390    0.7163  -20.6308 C   0  0  0  0  0  0  0  0  0  0  0  0
   -4.6171   -0.7576  -20.6414 C   0  0  0  0  0  0  0  0  0  0  0  0
   -5.6972   -1.3107  -21.5231 C   0  0  0  0  0  0  0  0  0  0  0  0
   -5.9754   -2.7847  -21.5337 C   0  0  0  0  0  0  0  0  0  0  0  0
   -5.1734   -3.7055  -20.6625 O   0  0  0  0  0  0  0  0  0  0  0  0
   -8.6092    2.4921  -24.7609 C   0  0  0  0  0  0  0  0  0  0  0  0
   -7.5500    3.1921  -25.5598 C   0  0  0  0  0  0  0  0  0  0  0  0
   -7.7378    4.6249  -25.9617 N   0  0  0  0  0  0  0  0  0  0  0  0
   -8.9849    5.3579  -25.5647 C   0  0  0  0  0  0  0  0  0  0  0  0
  -10.0441    4.6580  -24.7658 C   0  0  0  0  0  0  0  0  0  0  0  0
  -11.2912    5.3910  -24.3688 C   0  0  0  0  0  0  0  0  0  0  0  0
  -12.3503    4.6910  -23.5699 C   0  0  0  0  0  0  0  0  0  0  0  0
  -12.1625    3.2581  -23.1680 C   0  0  0  0  0  0  0  0  0  0  0  0
  -10.9154    2.5252  -23.5650 C   0  0  0  0  0  0  0  0  0  0  0  0
   -9.8562    3.2251  -24.3639 C   0  0  0  0  0  0  0  0  0  0  0  0
   -7.3336   -4.8117  -22.4260 C   0  0  0  0  0  0  0  0  0  0  0  0
   -4.1455   -6.9173  -23.4995 C   0  0  0  0  0  0  0  0  0  0  0  0
   -5.0385   -5.9911  -22.7283 N   0  0  0  0  0  0  0  0  0  0  0  0
   -6.4406   -5.7379  -23.1972 C   0  0  0  0  0  0  0  0  0  0  0  0
   -6.9499   -6.4110  -24.4373 O   0  0  0  0  0  0  0  0  0  0  0  0
   -4.7043   -5.5493  -21.9144 H   0  0  0  0  0  0  0  0  0  0  0  0
   -9.1831   -2.7461  -24.4256 C   0  0  0  0  0  0  0  0  0  0  0  0
  -10.2873   -3.2927  -23.5702 N   0  0  0  0  0  0  0  0  0  0  0  0
  -10.1778   -4.1621  -23.1214 H   0  0  0  0  0  0  0  0  0  0  0  0
  -11.5584   -2.5149  -23.3987 C   0  0  0  0  0  0  0  0  0  0  0  0
  -11.8026   -1.2859  -24.2231 N   0  0  0  0  0  0  0  0  0  0  0  0
  -13.0736   -0.5081  -24.0516 C   0  0  0  0  0  0  0  0  0  0  0  0
  -14.1006   -0.9594  -23.0556 N   0  0  0  0  0  0  0  0  0  0  0  0
  -13.8563   -2.1885  -22.2312 C   0  0  0  0  0  0  0  0  0  0  0  0
  -12.5852   -2.9662  -22.4028 N   0  0  0  0  0  0  0  0  0  0  0  0
 29 30  1  0  0  0
 30 31  1  0  0  0
 31 32  2  0  0  0
 31 28  1  0  0  0
 28  1  1  0  0  0
  1  2  1  0  0  0
  3  2  1  0  0  0
  3  4  1  0  0  0
  4  5  2  0  0  0
  4  6  1  0  0  0
  6 18  1  0  0  0
 18 19  2  0  0  0
 19 20  1  0  0  0
 20 21  2  0  0  0
 21 22  1  0  0  0
 22 23  2  0  0  0
 23 24  1  0  0  0
 24 25  2  0  0  0
 25 26  1  0  0  0
 26 27  2  0  0  0
  6  7  1  0  0  0
  7  8  1  0  0  0
  8 34  1  0  0  0
 34 35  1  0  0  0
 35 37  1  0  0  0
 37 38  2  0  0  0
 38 39  1  0  0  0
 39 40  2  0  0  0
 40 41  1  0  0  0
 41 42  2  0  0  0
  3  9  1  0  0  0
  9 10  2  0  0  0
 10 11  1  0  0  0
 11 12  1  0  0  0
 11 13  2  0  0  0
 13 14  1  0  0  0
 14 15  2  0  0  0
 15 16  1  0  0  0
 16 17  2  0  0  0
 16  1  1  0  0  0
  8  3  1  0  0  0
 42 37  1  0  0  0
 15  9  1  0  0  0
 27 18  1  0  0  0
 27 22  1  0  0  0
 30 33  1  0  0  0
 35 36  1  0  0  0
M  END
> <minimizedAffinity>
-8.22090

> <CNNscore>
0.1567833126

> <CNNaffinity>
6.6552238464

> <CNN_VS>
1.0434280634

> <CNNaffinity_variance>
0.1848099232

$$$$



 42 47  0  0  0  0  0  0  0  0999 V2000
   -8.7169    2.5800  -24.0991 N   0  0  0  0  0  0  0  0  0  0  0  0
   -7.8383    1.3653  -24.1512 C   0  0  0  0  0  0  0  0  0  0  0  0
   -8.4316    0.0016  -23.9563 C   0  0  0  0  0  0  0  0  0  0  0  0
   -8.8798   -1.4191  -23.7805 C   0  0  0  0  0  0  0  0  0  0  0  0
   -9.8930   -2.0563  -23.5714 O   0  0  0  0  0  0  0  0  0  0  0  0
   -7.6757   -2.3043  -23.9089 N   0  0  0  0  0  0  0  0  0  0  0  0
   -6.4833   -1.4308  -24.1640 C   0  0  0  0  0  0  0  0  0  0  0  0
   -6.9505   -0.0057  -24.1933 C   0  0  0  0  0  0  0  0  0  0  0  0
   -9.9036   -0.1476  -23.7093 C   0  0  0  0  0  0  0  0  0  0  0  0
  -10.4970   -1.5114  -23.5144 C   0  0  0  0  0  0  0  0  0  0  0  0
  -11.9689   -1.6606  -23.2674 C   0  0  0  0  0  0  0  0  0  0  0  0
  -12.5623   -3.0244  -23.0725 Cl  0  0  0  0  0  0  0  0  0  0  0  0
  -12.8475   -0.4460  -23.2153 C   0  0  0  0  0  0  0  0  0  0  0  0
  -12.2542    0.9178  -23.4102 C   0  0  0  0  0  0  0  0  0  0  0  0
  -10.7823    1.0670  -23.6572 C   0  0  0  0  0  0  0  0  0  0  0  0
  -10.1889    2.4308  -23.8521 C   0  0  0  0  0  0  0  0  0  0  0  0
  -11.0675    3.6454  -23.8000 O   0  0  0  0  0  0  0  0  0  0  0  0
   -7.6658   -3.8004  -23.8010 C   0  0  0  0  0  0  0  0  0  0  0  0
   -7.0758   -4.4612  -22.5906 C   0  0  0  0  0  0  0  0  0  0  0  0
   -7.0659   -5.9573  -22.4827 N   0  0  0  0  0  0  0  0  0  0  0  0
   -7.6460   -6.7926  -23.5854 C   0  0  0  0  0  0  0  0  0  0  0  0
   -8.2360   -6.1317  -24.7958 C   0  0  0  0  0  0  0  0  0  0  0  0
   -8.8161   -6.9670  -25.8985 C   0  0  0  0  0  0  0  0  0  0  0  0
   -9.4061   -6.3061  -27.1090 C   0  0  0  0  0  0  0  0  0  0  0  0
   -9.4160   -4.8100  -27.2168 C   0  0  0  0  0  0  0  0  0  0  0  0
   -8.8359   -3.9748  -26.1142 C   0  0  0  0  0  0  0  0  0  0  0  0
   -8.2459   -4.6356  -24.9037 C   0  0  0  0  0  0  0  0  0  0  0  0
   -8.1235    3.9438  -24.2940 C   0  0  0  0  0  0  0  0  0  0  0  0
   -6.3485    6.7317  -22.0971 C   0  0  0  0  0  0  0  0  0  0  0  0
   -7.1038    6.0758  -23.2148 N   0  0  0  0  0  0  0  0  0  0  0  0
   -7.3682    4.5998  -23.1763 C   0  0  0  0  0  0  0  0  0  0  0  0
   -6.8774    3.7797  -22.0202 O   0  0  0  0  0  0  0  0  0  0  0  0
   -7.4260    6.6140  -23.9736 H   0  0  0  0  0  0  0  0  0  0  0  0
   -6.0879    1.2004  -24.4198 C   0  0  0  0  0  0  0  0  0  0  0  0
   -4.6531    1.1891  -23.9829 N   0  0  0  0  0  0  0  0  0  0  0  0
   -3.9376    1.0568  -24.6460 H   0  0  0  0  0  0  0  0  0  0  0  0
   -4.3083    1.3795  -22.5355 C   0  0  0  0  0  0  0  0  0  0  0  0
   -3.3207    2.4341  -22.1322 N   0  0  0  0  0  0  0  0  0  0  0  0
   -2.9759    2.6245  -20.6849 C   0  0  0  0  0  0  0  0  0  0  0  0
   -3.6187    1.7603  -19.6407 N   0  0  0  0  0  0  0  0  0  0  0  0
   -4.6062    0.7058  -20.0440 C   0  0  0  0  0  0  0  0  0  0  0  0
   -4.9510    0.5154  -21.4914 N   0  0  0  0  0  0  0  0  0  0  0  0
 29 30  1  0  0  0
 30 31  1  0  0  0
 31 32  2  0  0  0
 31 28  1  0  0  0
 28  1  1  0  0  0
  1  2  1  0  0  0
  3  2  1  0  0  0
  3  4  1  0  0  0
  4  5  2  0  0  0
  4  6  1  0  0  0
  6 18  1  0  0  0
 18 19  2  0  0  0
 19 20  1  0  0  0
 20 21  2  0  0  0
 21 22  1  0  0  0
 22 23  2  0  0  0
 23 24  1  0  0  0
 24 25  2  0  0  0
 25 26  1  0  0  0
 26 27  2  0  0  0
  6  7  1  0  0  0
  7  8  1  0  0  0
  8 34  1  0  0  0
 34 35  1  0  0  0
 35 37  1  0  0  0
 37 38  2  0  0  0
 38 39  1  0  0  0
 39 40  2  0  0  0
 40 41  1  0  0  0
 41 42  2  0  0  0
  3  9  1  0  0  0
  9 10  2  0  0  0
 10 11  1  0  0  0
 11 12  1  0  0  0
 11 13  2  0  0  0
 13 14  1  0  0  0
 14 15  2  0  0  0
 15 16  1  0  0  0
 16 17  2  0  0  0
 16  1  1  0  0  0
  8  3  1  0  0  0
 42 37  1  0  0  0
 15  9  1  0  0  0
 27 18  1  0  0  0
 27 22  1  0  0  0
 30 33  1  0  0  0
 35 36  1  0  0  0
M  END
> <minimizedAffinity>
-7.72188

> <CNNscore>
0.1407293230

> <CNNaffinity>
6.5512542725

> <CNN_VS>
0.9219535589

> <CNNaffinity_variance>
0.1761110574

$$$$



 42 47  0  0  0  0  0  0  0  0999 V2000
   -3.5659   -0.6242  -25.0278 N   0  0  0  0  0  0  0  0  0  0  0  0
   -4.7400   -0.2191  -24.1868 C   0  0  0  0  0  0  0  0  0  0  0  0
   -6.0826   -0.8453  -24.4219 C   0  0  0  0  0  0  0  0  0  0  0  0
   -7.4785   -1.3814  -24.5400 C   0  0  0  0  0  0  0  0  0  0  0  0
   -8.1172   -2.1775  -25.1992 O   0  0  0  0  0  0  0  0  0  0  0  0
   -8.3256   -0.7005  -23.5062 N   0  0  0  0  0  0  0  0  0  0  0  0
   -7.4532    0.2565  -22.7491 C   0  0  0  0  0  0  0  0  0  0  0  0
   -6.0669    0.1670  -23.3151 C   0  0  0  0  0  0  0  0  0  0  0  0
   -6.2511   -1.8766  -25.4981 C   0  0  0  0  0  0  0  0  0  0  0  0
   -7.5936   -2.5028  -25.7332 C   0  0  0  0  0  0  0  0  0  0  0  0
   -7.7621   -3.5341  -26.8093 C   0  0  0  0  0  0  0  0  0  0  0  0
   -9.1047   -4.1603  -27.0444 Cl  0  0  0  0  0  0  0  0  0  0  0  0
   -6.5880   -3.9391  -27.6503 C   0  0  0  0  0  0  0  0  0  0  0  0
   -5.2454   -3.3129  -27.4152 C   0  0  0  0  0  0  0  0  0  0  0  0
   -5.0769   -2.2817  -26.3391 C   0  0  0  0  0  0  0  0  0  0  0  0
   -3.7343   -1.6554  -26.1040 C   0  0  0  0  0  0  0  0  0  0  0  0
   -2.5602   -2.0605  -26.9450 O   0  0  0  0  0  0  0  0  0  0  0  0
   -9.7883   -0.9353  -23.2708 C   0  0  0  0  0  0  0  0  0  0  0  0
  -10.2700   -2.2866  -22.8327 C   0  0  0  0  0  0  0  0  0  0  0  0
  -11.7327   -2.5214  -22.5973 N   0  0  0  0  0  0  0  0  0  0  0  0
  -12.7136   -1.4049  -22.8000 C   0  0  0  0  0  0  0  0  0  0  0  0
  -12.2319   -0.0535  -23.2380 C   0  0  0  0  0  0  0  0  0  0  0  0
  -13.2129    1.0630  -23.4406 C   0  0  0  0  0  0  0  0  0  0  0  0
  -12.7311    2.4143  -23.8787 C   0  0  0  0  0  0  0  0  0  0  0  0
  -11.2684    2.6491  -24.1141 C   0  0  0  0  0  0  0  0  0  0  0  0
  -10.2875    1.5326  -23.9114 C   0  0  0  0  0  0  0  0  0  0  0  0
  -10.7692    0.1813  -23.4734 C   0  0  0  0  0  0  0  0  0  0  0  0
   -2.2232    0.0021  -24.7927 C   0  0  0  0  0  0  0  0  0  0  0  0
   -0.5662    0.9793  -28.2639 C   0  0  0  0  0  0  0  0  0  0  0  0
   -1.5583    0.8888  -27.1425 N   0  0  0  0  0  0  0  0  0  0  0  0
   -1.2311    0.0926  -25.9141 C   0  0  0  0  0  0  0  0  0  0  0  0
    0.0882   -0.6131  -25.8071 O   0  0  0  0  0  0  0  0  0  0  0  0
   -2.4242    1.3519  -27.2127 H   0  0  0  0  0  0  0  0  0  0  0  0
   -4.8744    0.9519  -22.8549 C   0  0  0  0  0  0  0  0  0  0  0  0
   -3.9980    0.4138  -21.7631 N   0  0  0  0  0  0  0  0  0  0  0  0
   -3.0200    0.4067  -21.8754 H   0  0  0  0  0  0  0  0  0  0  0  0
   -4.6117   -0.1137  -20.5001 C   0  0  0  0  0  0  0  0  0  0  0  0
   -4.5973    0.7209  -19.2538 N   0  0  0  0  0  0  0  0  0  0  0  0
   -5.2110    0.1936  -17.9909 C   0  0  0  0  0  0  0  0  0  0  0  0
   -5.8391   -1.1686  -17.9740 N   0  0  0  0  0  0  0  0  0  0  0  0
   -5.8534   -2.0032  -19.2203 C   0  0  0  0  0  0  0  0  0  0  0  0
   -5.2398   -1.4758  -20.4833 N   0  0  0  0  0  0  0  0  0  0  0  0
 29 30  1  0  0  0
 30 31  1  0  0  0
 31 32  2  0  0  0
 31 28  1  0  0  0
 28  1  1  0  0  0
  1  2  1  0  0  0
  3  2  1  0  0  0
  3  4  1  0  0  0
  4  5  2  0  0  0
  4  6  1  0  0  0
  6 18  1  0  0  0
 18 19  2  0  0  0
 19 20  1  0  0  0
 20 21  2  0  0  0
 21 22  1  0  0  0
 22 23  2  0  0  0
 23 24  1  0  0  0
 24 25  2  0  0  0
 25 26  1  0  0  0
 26 27  2  0  0  0
  6  7  1  0  0  0
  7  8  1  0  0  0
  8 34  1  0  0  0
 34 35  1  0  0  0
 35 37  1  0  0  0
 37 38  2  0  0  0
 38 39  1  0  0  0
 39 40  2  0  0  0
 40 41  1  0  0  0
 41 42  2  0  0  0
  3  9  1  0  0  0
  9 10  2  0  0  0
 10 11  1  0  0  0
 11 12  1  0  0  0
 11 13  2  0  0  0
 13 14  1  0  0  0
 14 15  2  0  0  0
 15 16  1  0  0  0
 16 17  2  0  0  0
 16  1  1  0  0  0
  8  3  1  0  0  0
 42 37  1  0  0  0
 15  9  1  0  0  0
 27 18  1  0  0  0
 27 22  1  0  0  0
 30 33  1  0  0  0
 35 36  1  0  0  0
M  END
> <minimizedAffinity>
-7.66512

> <CNNscore>
0.1144135594

> <CNNaffinity>
5.8237280846

> <CNN_VS>
0.6663134694

> <CNNaffinity_variance>
0.7177186608

$$$$
