


 42 47  0  0  0  0  0  0  0  0999 V2000
    9.9427    0.5127   22.9362 N   0  0  0  0  0  0  0  0  0  0  0  0
    8.7771   -0.4193   22.7849 C   0  0  0  0  0  0  0  0  0  0  0  0
    8.7414   -1.7066   23.5541 C   0  0  0  0  0  0  0  0  0  0  0  0
    8.5673   -3.0216   24.2544 C   0  0  0  0  0  0  0  0  0  0  0  0
    9.1436   -3.7353   25.0512 O   0  0  0  0  0  0  0  0  0  0  0  0
    7.2636   -3.6150   23.8090 N   0  0  0  0  0  0  0  0  0  0  0  0
    6.6319   -2.6666   22.8335 C   0  0  0  0  0  0  0  0  0  0  0  0
    7.5453   -1.4872   22.6760 C   0  0  0  0  0  0  0  0  0  0  0  0
    9.8712   -2.0619   24.4746 C   0  0  0  0  0  0  0  0  0  0  0  0
    9.8355   -3.3492   25.2438 C   0  0  0  0  0  0  0  0  0  0  0  0
   10.9653   -3.7044   26.1642 C   0  0  0  0  0  0  0  0  0  0  0  0
   10.9296   -4.9917   26.9334 Cl  0  0  0  0  0  0  0  0  0  0  0  0
   12.1309   -2.7724   26.3155 C   0  0  0  0  0  0  0  0  0  0  0  0
   12.1666   -1.4852   25.5463 C   0  0  0  0  0  0  0  0  0  0  0  0
   11.0368   -1.1299   24.6259 C   0  0  0  0  0  0  0  0  0  0  0  0
   11.0725    0.1574   23.8567 C   0  0  0  0  0  0  0  0  0  0  0  0
   12.2380    1.0894   24.0079 O   0  0  0  0  0  0  0  0  0  0  0  0
    6.6920   -4.9264   24.2601 C   0  0  0  0  0  0  0  0  0  0  0  0
    7.2347   -6.2109   23.7073 C   0  0  0  0  0  0  0  0  0  0  0  0
    6.6630   -7.5223   24.1583 N   0  0  0  0  0  0  0  0  0  0  0  0
    5.5487   -7.5492   25.1621 C   0  0  0  0  0  0  0  0  0  0  0  0
    5.0061   -6.2647   25.7148 C   0  0  0  0  0  0  0  0  0  0  0  0
    3.8917   -6.2916   26.7187 C   0  0  0  0  0  0  0  0  0  0  0  0
    3.3491   -5.0070   27.2714 C   0  0  0  0  0  0  0  0  0  0  0  0
    3.9207   -3.6956   26.8203 C   0  0  0  0  0  0  0  0  0  0  0  0
    5.0350   -3.6687   25.8166 C   0  0  0  0  0  0  0  0  0  0  0  0
    5.5777   -4.9533   25.2638 C   0  0  0  0  0  0  0  0  0  0  0  0
    9.9784    1.8000   22.1670 C   0  0  0  0  0  0  0  0  0  0  0  0
   11.8330    5.3049   22.3267 C   0  0  0  0  0  0  0  0  0  0  0  0
   10.8326    4.2456   21.9700 N   0  0  0  0  0  0  0  0  0  0  0  0
   10.9787    2.8592   22.5236 C   0  0  0  0  0  0  0  0  0  0  0  0
   12.1253    2.5321   23.4339 O   0  0  0  0  0  0  0  0  0  0  0  0
   10.0802    4.4604   21.3726 H   0  0  0  0  0  0  0  0  0  0  0  0
    7.3046   -0.2973   21.7949 C   0  0  0  0  0  0  0  0  0  0  0  0
    7.1171   -0.4830   20.3184 N   0  0  0  0  0  0  0  0  0  0  0  0
    7.6956   -1.1071   19.8234 H   0  0  0  0  0  0  0  0  0  0  0  0
    6.0481    0.2822   19.5960 C   0  0  0  0  0  0  0  0  0  0  0  0
    6.0202    0.2977   18.0964 N   0  0  0  0  0  0  0  0  0  0  0  0
    4.9514    1.0628   17.3740 C   0  0  0  0  0  0  0  0  0  0  0  0
    3.9102    1.8125   18.1512 N   0  0  0  0  0  0  0  0  0  0  0  0
    3.9381    1.7970   19.6509 C   0  0  0  0  0  0  0  0  0  0  0  0
    5.0070    1.0319   20.3733 N   0  0  0  0  0  0  0  0  0  0  0  0
 29 30  1  0  0  0
 30 31  1  0  0  0
 31 32  2  0  0  0
 31 28  1  0  0  0
 28  1  1  0  0  0
  1  2  1  0  0  0
  3  2  1  0  0  0
  3  4  1  0  0  0
  4  5  2  0  0  0
  4  6  1  0  0  0
  6 18  1  0  0  0
 18 19  2  0  0  0
 19 20  1  0  0  0
 20 21  2  0  0  0
 21 22  1  0  0  0
 22 23  2  0  0  0
 23 24  1  0  0  0
 24 25  2  0  0  0
 25 26  1  0  0  0
 26 27  2  0  0  0
  6  7  1  0  0  0
  7  8  1  0  0  0
  8 34  1  0  0  0
 34 35  1  0  0  0
 35 37  1  0  0  0
 37 38  2  0  0  0
 38 39  1  0  0  0
 39 40  2  0  0  0
 40 41  1  0  0  0
 41 42  2  0  0  0
  3  9  1  0  0  0
  9 10  2  0  0  0
 10 11  1  0  0  0
 11 12  1  0  0  0
 11 13  2  0  0  0
 13 14  1  0  0  0
 14 15  2  0  0  0
 15 16  1  0  0  0
 16 17  2  0  0  0
 16  1  1  0  0  0
  8  3  1  0  0  0
 42 37  1  0  0  0
 15  9  1  0  0  0
 27 18  1  0  0  0
 27 22  1  0  0  0
 30 33  1  0  0  0
 35 36  1  0  0  0
M  END
> <minimizedAffinity>
-9.62133

> <CNNscore>
0.2463802397

> <CNNaffinity>
7.0052995682

> <CNN_VS>
1.7259674072

> <CNNaffinity_variance>
0.0967353135

$$$$



 42 47  0  0  0  0  0  0  0  0999 V2000
   10.5779    0.4867   23.0037 N   0  0  0  0  0  0  0  0  0  0  0  0
    9.2114   -0.1296   23.0570 C   0  0  0  0  0  0  0  0  0  0  0  0
    8.9562   -1.3124   23.9434 C   0  0  0  0  0  0  0  0  0  0  0  0
    8.5528   -2.4918   24.7779 C   0  0  0  0  0  0  0  0  0  0  0  0
    9.0293   -3.2732   25.5771 O   0  0  0  0  0  0  0  0  0  0  0  0
    7.1004   -2.7659   24.5218 N   0  0  0  0  0  0  0  0  0  0  0  0
    6.6062   -1.7559   23.5290 C   0  0  0  0  0  0  0  0  0  0  0  0
    7.7531   -0.8576   23.1715 C   0  0  0  0  0  0  0  0  0  0  0  0
   10.0674   -1.8790   24.7766 C   0  0  0  0  0  0  0  0  0  0  0  0
    9.8122   -3.0618   25.6630 C   0  0  0  0  0  0  0  0  0  0  0  0
   10.9234   -3.6283   26.4961 C   0  0  0  0  0  0  0  0  0  0  0  0
   10.6682   -4.8112   27.3826 Cl  0  0  0  0  0  0  0  0  0  0  0  0
   12.2899   -3.0120   26.4429 C   0  0  0  0  0  0  0  0  0  0  0  0
   12.5452   -1.8292   25.5565 C   0  0  0  0  0  0  0  0  0  0  0  0
   11.4339   -1.2627   24.7233 C   0  0  0  0  0  0  0  0  0  0  0  0
   11.6892   -0.0798   23.8369 C   0  0  0  0  0  0  0  0  0  0  0  0
   13.0557    0.5365   23.7836 O   0  0  0  0  0  0  0  0  0  0  0  0
    6.2854   -3.8581   25.1484 C   0  0  0  0  0  0  0  0  0  0  0  0
    6.0452   -5.1370   24.4022 C   0  0  0  0  0  0  0  0  0  0  0  0
    5.2302   -6.2293   25.0289 N   0  0  0  0  0  0  0  0  0  0  0  0
    4.6554   -6.0427   26.4017 C   0  0  0  0  0  0  0  0  0  0  0  0
    4.8956   -4.7638   27.1479 C   0  0  0  0  0  0  0  0  0  0  0  0
    4.3208   -4.5772   28.5208 C   0  0  0  0  0  0  0  0  0  0  0  0
    4.5610   -3.2983   29.2670 C   0  0  0  0  0  0  0  0  0  0  0  0
    5.3760   -2.2060   28.6403 C   0  0  0  0  0  0  0  0  0  0  0  0
    5.9508   -2.3926   27.2675 C   0  0  0  0  0  0  0  0  0  0  0  0
    5.7106   -3.6715   26.5213 C   0  0  0  0  0  0  0  0  0  0  0  0
   10.8331    1.6696   22.1173 C   0  0  0  0  0  0  0  0  0  0  0  0
   11.0010    5.5797   22.7749 C   0  0  0  0  0  0  0  0  0  0  0  0
   11.3767    4.2025   22.3144 N   0  0  0  0  0  0  0  0  0  0  0  0
   10.4575    3.0468   22.5778 C   0  0  0  0  0  0  0  0  0  0  0  0
    9.1625    3.2684   23.3018 O   0  0  0  0  0  0  0  0  0  0  0  0
   12.2266    4.0571   21.8392 H   0  0  0  0  0  0  0  0  0  0  0  0
    7.7053    0.2934   22.2109 C   0  0  0  0  0  0  0  0  0  0  0  0
    7.6521    0.0361   20.7341 N   0  0  0  0  0  0  0  0  0  0  0  0
    8.3876   -0.4461   20.2917 H   0  0  0  0  0  0  0  0  0  0  0  0
    6.4782    0.5134   19.9314 C   0  0  0  0  0  0  0  0  0  0  0  0
    5.3706    1.2718   20.6007 N   0  0  0  0  0  0  0  0  0  0  0  0
    4.1968    1.7491   19.7980 C   0  0  0  0  0  0  0  0  0  0  0  0
    4.1306    1.4681   18.3260 N   0  0  0  0  0  0  0  0  0  0  0  0
    5.2383    0.7098   17.6568 C   0  0  0  0  0  0  0  0  0  0  0  0
    6.4121    0.2324   18.4595 N   0  0  0  0  0  0  0  0  0  0  0  0
 29 30  1  0  0  0
 30 31  1  0  0  0
 31 32  2  0  0  0
 31 28  1  0  0  0
 28  1  1  0  0  0
  1  2  1  0  0  0
  3  2  1  0  0  0
  3  4  1  0  0  0
  4  5  2  0  0  0
  4  6  1  0  0  0
  6 18  1  0  0  0
 18 19  2  0  0  0
 19 20  1  0  0  0
 20 21  2  0  0  0
 21 22  1  0  0  0
 22 23  2  0  0  0
 23 24  1  0  0  0
 24 25  2  0  0  0
 25 26  1  0  0  0
 26 27  2  0  0  0
  6  7  1  0  0  0
  7  8  1  0  0  0
  8 34  1  0  0  0
 34 35  1  0  0  0
 35 37  1  0  0  0
 37 38  2  0  0  0
 38 39  1  0  0  0
 39 40  2  0  0  0
 40 41  1  0  0  0
 41 42  2  0  0  0
  3  9  1  0  0  0
  9 10  2  0  0  0
 10 11  1  0  0  0
 11 12  1  0  0  0
 11 13  2  0  0  0
 13 14  1  0  0  0
 14 15  2  0  0  0
 15 16  1  0  0  0
 16 17  2  0  0  0
 16  1  1  0  0  0
  8  3  1  0  0  0
 42 37  1  0  0  0
 15  9  1  0  0  0
 27 18  1  0  0  0
 27 22  1  0  0  0
 30 33  1  0  0  0
 35 36  1  0  0  0
M  END
> <minimizedAffinity>
-8.76120

> <CNNscore>
0.2036547363

> <CNNaffinity>
6.8866424561

> <CNN_VS>
1.4024974108

> <CNNaffinity_variance>
0.1235290021

$$$$



 42 47  0  0  0  0  0  0  0  0999 V2000
    6.8835   -3.4524   23.5239 N   0  0  0  0  0  0  0  0  0  0  0  0
    7.0915   -2.0644   22.9948 C   0  0  0  0  0  0  0  0  0  0  0  0
    8.3553   -1.3219   23.3131 C   0  0  0  0  0  0  0  0  0  0  0  0
    9.5611   -0.4607   23.5467 C   0  0  0  0  0  0  0  0  0  0  0  0
   10.6316   -0.4939   24.1205 O   0  0  0  0  0  0  0  0  0  0  0  0
    9.3450    0.8421   22.8354 N   0  0  0  0  0  0  0  0  0  0  0  0
    8.0057    0.7862   22.1622 C   0  0  0  0  0  0  0  0  0  0  0  0
    7.3941   -0.5513   22.4575 C   0  0  0  0  0  0  0  0  0  0  0  0
    9.4112   -1.9674   24.1607 C   0  0  0  0  0  0  0  0  0  0  0  0
   10.6751   -1.2250   24.4791 C   0  0  0  0  0  0  0  0  0  0  0  0
   11.7309   -1.8705   25.3267 C   0  0  0  0  0  0  0  0  0  0  0  0
   12.9948   -1.1280   25.6451 Cl  0  0  0  0  0  0  0  0  0  0  0  0
   11.5229   -3.2586   25.8559 C   0  0  0  0  0  0  0  0  0  0  0  0
   10.2591   -4.0011   25.5375 C   0  0  0  0  0  0  0  0  0  0  0  0
    9.2033   -3.3555   24.6899 C   0  0  0  0  0  0  0  0  0  0  0  0
    7.9394   -4.0980   24.3715 C   0  0  0  0  0  0  0  0  0  0  0  0
    7.7314   -5.4861   24.9007 O   0  0  0  0  0  0  0  0  0  0  0  0
   10.3005    1.9980   22.8030 C   0  0  0  0  0  0  0  0  0  0  0  0
   11.7672    1.7533   22.6053 C   0  0  0  0  0  0  0  0  0  0  0  0
   12.7227    2.9092   22.5729 N   0  0  0  0  0  0  0  0  0  0  0  0
   12.2115    4.3096   22.7381 C   0  0  0  0  0  0  0  0  0  0  0  0
   10.7448    4.5543   22.9358 C   0  0  0  0  0  0  0  0  0  0  0  0
   10.2336    5.9549   23.1011 C   0  0  0  0  0  0  0  0  0  0  0  0
    8.7670    6.1994   23.2987 C   0  0  0  0  0  0  0  0  0  0  0  0
    7.8115    5.0436   23.3311 C   0  0  0  0  0  0  0  0  0  0  0  0
    8.3227    3.6431   23.1659 C   0  0  0  0  0  0  0  0  0  0  0  0
    9.7893    3.3984   22.9682 C   0  0  0  0  0  0  0  0  0  0  0  0
    5.6196   -4.1950   23.2055 C   0  0  0  0  0  0  0  0  0  0  0  0
    4.8728   -7.5492   25.1908 C   0  0  0  0  0  0  0  0  0  0  0  0
    4.9865   -6.0888   24.8675 N   0  0  0  0  0  0  0  0  0  0  0  0
    5.5060   -5.6553   23.5288 C   0  0  0  0  0  0  0  0  0  0  0  0
    5.9118   -6.6821   22.5134 O   0  0  0  0  0  0  0  0  0  0  0  0
    4.7202   -5.4149   25.5340 H   0  0  0  0  0  0  0  0  0  0  0  0
    6.0561   -1.0334   21.9808 C   0  0  0  0  0  0  0  0  0  0  0  0
    4.9294   -0.0602   21.7988 N   0  0  0  0  0  0  0  0  0  0  0  0
    4.3718    0.1969   22.5684 H   0  0  0  0  0  0  0  0  0  0  0  0
    4.6521    0.5216   20.4442 C   0  0  0  0  0  0  0  0  0  0  0  0
    3.5713    1.5479   20.2757 N   0  0  0  0  0  0  0  0  0  0  0  0
    3.2940    2.1296   18.9213 C   0  0  0  0  0  0  0  0  0  0  0  0
    4.0976    1.6850   17.7352 N   0  0  0  0  0  0  0  0  0  0  0  0
    5.1785    0.6587   17.9037 C   0  0  0  0  0  0  0  0  0  0  0  0
    5.4557    0.0770   19.2583 N   0  0  0  0  0  0  0  0  0  0  0  0
 29 30  1  0  0  0
 30 31  1  0  0  0
 31 32  2  0  0  0
 31 28  1  0  0  0
 28  1  1  0  0  0
  1  2  1  0  0  0
  3  2  1  0  0  0
  3  4  1  0  0  0
  4  5  2  0  0  0
  4  6  1  0  0  0
  6 18  1  0  0  0
 18 19  2  0  0  0
 19 20  1  0  0  0
 20 21  2  0  0  0
 21 22  1  0  0  0
 22 23  2  0  0  0
 23 24  1  0  0  0
 24 25  2  0  0  0
 25 26  1  0  0  0
 26 27  2  0  0  0
  6  7  1  0  0  0
  7  8  1  0  0  0
  8 34  1  0  0  0
 34 35  1  0  0  0
 35 37  1  0  0  0
 37 38  2  0  0  0
 38 39  1  0  0  0
 39 40  2  0  0  0
 40 41  1  0  0  0
 41 42  2  0  0  0
  3  9  1  0  0  0
  9 10  2  0  0  0
 10 11  1  0  0  0
 11 12  1  0  0  0
 11 13  2  0  0  0
 13 14  1  0  0  0
 14 15  2  0  0  0
 15 16  1  0  0  0
 16 17  2  0  0  0
 16  1  1  0  0  0
  8  3  1  0  0  0
 42 37  1  0  0  0
 15  9  1  0  0  0
 27 18  1  0  0  0
 27 22  1  0  0  0
 30 33  1  0  0  0
 35 36  1  0  0  0
M  END
> <minimizedAffinity>
-8.68862

> <CNNscore>
0.2015475482

> <CNNaffinity>
6.8564414978

> <CNN_VS>
1.3818989992

> <CNNaffinity_variance>
0.1343358457

$$$$



 42 47  0  0  0  0  0  0  0  0999 V2000
    5.4398    3.8768   23.0508 N   0  0  0  0  0  0  0  0  0  0  0  0
    6.0470    2.5074   23.1285 C   0  0  0  0  0  0  0  0  0  0  0  0
    7.5384    2.3485   23.1531 C   0  0  0  0  0  0  0  0  0  0  0  0
    9.0048    2.0348   23.1855 C   0  0  0  0  0  0  0  0  0  0  0  0
   10.0788    2.6028   23.1678 O   0  0  0  0  0  0  0  0  0  0  0  0
    9.1585    0.5448   23.2645 N   0  0  0  0  0  0  0  0  0  0  0  0
    7.7870   -0.0624   23.2809 C   0  0  0  0  0  0  0  0  0  0  0  0
    6.7857    1.0524   23.2121 C   0  0  0  0  0  0  0  0  0  0  0  0
    8.4226    3.5591   23.1000 C   0  0  0  0  0  0  0  0  0  0  0  0
    9.9139    3.4003   23.1246 C   0  0  0  0  0  0  0  0  0  0  0  0
   10.7980    4.6108   23.0715 C   0  0  0  0  0  0  0  0  0  0  0  0
   12.2894    4.4520   23.0962 Cl  0  0  0  0  0  0  0  0  0  0  0  0
   10.1908    5.9802   22.9938 C   0  0  0  0  0  0  0  0  0  0  0  0
    8.6995    6.1391   22.9692 C   0  0  0  0  0  0  0  0  0  0  0  0
    7.8154    4.9285   23.0223 C   0  0  0  0  0  0  0  0  0  0  0  0
    6.3239    5.0873   22.9977 C   0  0  0  0  0  0  0  0  0  0  0  0
    5.7167    6.4567   22.9200 O   0  0  0  0  0  0  0  0  0  0  0  0
   10.4559   -0.2061   23.3177 C   0  0  0  0  0  0  0  0  0  0  0  0
   11.5347    0.0886   22.3179 C   0  0  0  0  0  0  0  0  0  0  0  0
   12.8321   -0.6623   22.3711 N   0  0  0  0  0  0  0  0  0  0  0  0
   13.0508   -1.7080   23.4241 C   0  0  0  0  0  0  0  0  0  0  0  0
   11.9720   -2.0027   24.4239 C   0  0  0  0  0  0  0  0  0  0  0  0
   12.1908   -3.0484   25.4769 C   0  0  0  0  0  0  0  0  0  0  0  0
   11.1120   -3.3430   26.4767 C   0  0  0  0  0  0  0  0  0  0  0  0
    9.8146   -2.5921   26.4235 C   0  0  0  0  0  0  0  0  0  0  0  0
    9.5959   -1.5464   25.3705 C   0  0  0  0  0  0  0  0  0  0  0  0
   10.6746   -1.2517   24.3707 C   0  0  0  0  0  0  0  0  0  0  0  0
    3.9484    4.0356   23.0262 C   0  0  0  0  0  0  0  0  0  0  0  0
    2.3485    3.5023   19.4337 C   0  0  0  0  0  0  0  0  0  0  0  0
    3.1476    4.0967   20.5554 N   0  0  0  0  0  0  0  0  0  0  0  0
    3.1493    3.4412   21.9045 C   0  0  0  0  0  0  0  0  0  0  0  0
    2.3519    2.1912   22.1320 O   0  0  0  0  0  0  0  0  0  0  0  0
    3.6710    4.9171   20.4060 H   0  0  0  0  0  0  0  0  0  0  0  0
    5.2937    0.8980   23.2037 C   0  0  0  0  0  0  0  0  0  0  0  0
    4.6354    0.0286   22.1739 N   0  0  0  0  0  0  0  0  0  0  0  0
    3.9172   -0.5905   22.4387 H   0  0  0  0  0  0  0  0  0  0  0  0
    5.0713    0.1024   20.7405 C   0  0  0  0  0  0  0  0  0  0  0  0
    6.3224   -0.5980   20.3000 N   0  0  0  0  0  0  0  0  0  0  0  0
    6.7583   -0.5243   18.8668 C   0  0  0  0  0  0  0  0  0  0  0  0
    5.9430    0.2500   17.8737 N   0  0  0  0  0  0  0  0  0  0  0  0
    4.6919    0.9504   18.3142 C   0  0  0  0  0  0  0  0  0  0  0  0
    4.2560    0.8766   19.7476 N   0  0  0  0  0  0  0  0  0  0  0  0
 29 30  1  0  0  0
 30 31  1  0  0  0
 31 32  2  0  0  0
 31 28  1  0  0  0
 28  1  1  0  0  0
  1  2  1  0  0  0
  3  2  1  0  0  0
  3  4  1  0  0  0
  4  5  2  0  0  0
  4  6  1  0  0  0
  6 18  1  0  0  0
 18 19  2  0  0  0
 19 20  1  0  0  0
 20 21  2  0  0  0
 21 22  1  0  0  0
 22 23  2  0  0  0
 23 24  1  0  0  0
 24 25  2  0  0  0
 25 26  1  0  0  0
 26 27  2  0  0  0
  6  7  1  0  0  0
  7  8  1  0  0  0
  8 34  1  0  0  0
 34 35  1  0  0  0
 35 37  1  0  0  0
 37 38  2  0  0  0
 38 39  1  0  0  0
 39 40  2  0  0  0
 40 41  1  0  0  0
 41 42  2  0  0  0
  3  9  1  0  0  0
  9 10  2  0  0  0
 10 11  1  0  0  0
 11 12  1  0  0  0
 11 13  2  0  0  0
 13 14  1  0  0  0
 14 15  2  0  0  0
 15 16  1  0  0  0
 16 17  2  0  0  0
 16  1  1  0  0  0
  8  3  1  0  0  0
 42 37  1  0  0  0
 15  9  1  0  0  0
 27 18  1  0  0  0
 27 22  1  0  0  0
 30 33  1  0  0  0
 35 36  1  0  0  0
M  END
> <minimizedAffinity>
-8.39846

> <CNNscore>
0.1438192427

> <CNNaffinity>
6.3581438065

> <CNN_VS>
0.9144234061

> <CNNaffinity_variance>
0.3271421790

$$$$



 42 47  0  0  0  0  0  0  0  0999 V2000
   10.7212    1.5258   22.7964 N   0  0  0  0  0  0  0  0  0  0  0  0
    9.3336    1.1347   23.2105 C   0  0  0  0  0  0  0  0  0  0  0  0
    9.1252   -0.0413   24.1180 C   0  0  0  0  0  0  0  0  0  0  0  0
    8.7630   -1.1870   25.0158 C   0  0  0  0  0  0  0  0  0  0  0  0
    9.2943   -2.0797   25.6461 O   0  0  0  0  0  0  0  0  0  0  0  0
    7.2701   -1.2093   25.1597 N   0  0  0  0  0  0  0  0  0  0  0  0
    6.7096   -0.0772   24.3508 C   0  0  0  0  0  0  0  0  0  0  0  0
    7.8561    0.6446   23.7071 C   0  0  0  0  0  0  0  0  0  0  0  0
   10.3045   -0.8261   24.6115 C   0  0  0  0  0  0  0  0  0  0  0  0
   10.0961   -2.0021   25.5191 C   0  0  0  0  0  0  0  0  0  0  0  0
   11.2753   -2.7868   26.0125 C   0  0  0  0  0  0  0  0  0  0  0  0
   11.0669   -3.9629   26.9201 Cl  0  0  0  0  0  0  0  0  0  0  0  0
   12.6629   -2.3957   25.5984 C   0  0  0  0  0  0  0  0  0  0  0  0
   12.8713   -1.2197   24.6908 C   0  0  0  0  0  0  0  0  0  0  0  0
   11.6921   -0.4350   24.1974 C   0  0  0  0  0  0  0  0  0  0  0  0
   11.9005    0.7411   23.2898 C   0  0  0  0  0  0  0  0  0  0  0  0
   13.2881    1.1322   22.8757 O   0  0  0  0  0  0  0  0  0  0  0  0
    6.4770   -2.1912   25.9702 C   0  0  0  0  0  0  0  0  0  0  0  0
    6.0240   -1.8292   27.3536 C   0  0  0  0  0  0  0  0  0  0  0  0
    5.2309   -2.8111   28.1641 N   0  0  0  0  0  0  0  0  0  0  0  0
    4.8908   -4.1549   27.5911 C   0  0  0  0  0  0  0  0  0  0  0  0
    5.3437   -4.5169   26.2077 C   0  0  0  0  0  0  0  0  0  0  0  0
    5.0035   -5.8608   25.6347 C   0  0  0  0  0  0  0  0  0  0  0  0
    5.4565   -6.2227   24.2513 C   0  0  0  0  0  0  0  0  0  0  0  0
    6.2496   -5.2408   23.4408 C   0  0  0  0  0  0  0  0  0  0  0  0
    6.5898   -3.8970   24.0138 C   0  0  0  0  0  0  0  0  0  0  0  0
    6.1368   -3.5350   25.3972 C   0  0  0  0  0  0  0  0  0  0  0  0
   10.9296    2.7019   21.8888 C   0  0  0  0  0  0  0  0  0  0  0  0
   10.7381    6.3277   23.4908 C   0  0  0  0  0  0  0  0  0  0  0  0
   10.3162    5.0059   22.9207 N   0  0  0  0  0  0  0  0  0  0  0  0
   11.3514    4.0237   22.4588 C   0  0  0  0  0  0  0  0  0  0  0  0
   12.8086    4.3631   22.5669 O   0  0  0  0  0  0  0  0  0  0  0  0
    9.3599    4.7831   22.8498 H   0  0  0  0  0  0  0  0  0  0  0  0
    7.7518    1.8421   22.8098 C   0  0  0  0  0  0  0  0  0  0  0  0
    6.4811    2.1081   22.0585 N   0  0  0  0  0  0  0  0  0  0  0  0
    5.8217    2.7454   22.4167 H   0  0  0  0  0  0  0  0  0  0  0  0
    6.2149    1.4030   20.7616 C   0  0  0  0  0  0  0  0  0  0  0  0
    7.2337    0.4561   20.1999 N   0  0  0  0  0  0  0  0  0  0  0  0
    6.9676   -0.2490   18.9030 C   0  0  0  0  0  0  0  0  0  0  0  0
    5.6826   -0.0073   18.1678 N   0  0  0  0  0  0  0  0  0  0  0  0
    4.6638    0.9396   18.7296 C   0  0  0  0  0  0  0  0  0  0  0  0
    4.9300    1.6447   20.0265 N   0  0  0  0  0  0  0  0  0  0  0  0
 29 30  1  0  0  0
 30 31  1  0  0  0
 31 32  2  0  0  0
 31 28  1  0  0  0
 28  1  1  0  0  0
  1  2  1  0  0  0
  3  2  1  0  0  0
  3  4  1  0  0  0
  4  5  2  0  0  0
  4  6  1  0  0  0
  6 18  1  0  0  0
 18 19  2  0  0  0
 19 20  1  0  0  0
 20 21  2  0  0  0
 21 22  1  0  0  0
 22 23  2  0  0  0
 23 24  1  0  0  0
 24 25  2  0  0  0
 25 26  1  0  0  0
 26 27  2  0  0  0
  6  7  1  0  0  0
  7  8  1  0  0  0
  8 34  1  0  0  0
 34 35  1  0  0  0
 35 37  1  0  0  0
 37 38  2  0  0  0
 38 39  1  0  0  0
 39 40  2  0  0  0
 40 41  1  0  0  0
 41 42  2  0  0  0
  3  9  1  0  0  0
  9 10  2  0  0  0
 10 11  1  0  0  0
 11 12  1  0  0  0
 11 13  2  0  0  0
 13 14  1  0  0  0
 14 15  2  0  0  0
 15 16  1  0  0  0
 16 17  2  0  0  0
 16  1  1  0  0  0
  8  3  1  0  0  0
 42 37  1  0  0  0
 15  9  1  0  0  0
 27 18  1  0  0  0
 27 22  1  0  0  0
 30 33  1  0  0  0
 35 36  1  0  0  0
M  END
> <minimizedAffinity>
-9.28752

> <CNNscore>
0.1349322349

> <CNNaffinity>
6.9278783798

> <CNN_VS>
0.9347941279

> <CNNaffinity_variance>
0.1353591233

$$$$



 42 47  0  0  0  0  0  0  0  0999 V2000
   10.6403    1.4951   22.8198 N   0  0  0  0  0  0  0  0  0  0  0  0
    9.2411    1.1485   23.2347 C   0  0  0  0  0  0  0  0  0  0  0  0
    8.9984   -0.0004   24.1680 C   0  0  0  0  0  0  0  0  0  0  0  0
    8.6027   -1.1155   25.0899 C   0  0  0  0  0  0  0  0  0  0  0  0
    9.1080   -2.0064   25.7437 O   0  0  0  0  0  0  0  0  0  0  0  0
    7.1090   -1.0970   25.2255 N   0  0  0  0  0  0  0  0  0  0  0  0
    6.5814    0.0297   24.3875 C   0  0  0  0  0  0  0  0  0  0  0  0
    7.7491    0.7074   23.7339 C   0  0  0  0  0  0  0  0  0  0  0  0
   10.1548   -0.8029   24.6863 C   0  0  0  0  0  0  0  0  0  0  0  0
    9.9121   -1.9518   25.6196 C   0  0  0  0  0  0  0  0  0  0  0  0
   11.0686   -2.7542   26.1379 C   0  0  0  0  0  0  0  0  0  0  0  0
   10.8259   -3.9032   27.0711 Cl  0  0  0  0  0  0  0  0  0  0  0  0
   12.4678   -2.4077   25.7229 C   0  0  0  0  0  0  0  0  0  0  0  0
   12.7105   -1.2588   24.7897 C   0  0  0  0  0  0  0  0  0  0  0  0
   11.5540   -0.4564   24.2714 C   0  0  0  0  0  0  0  0  0  0  0  0
   11.7967    0.6927   23.3381 C   0  0  0  0  0  0  0  0  0  0  0  0
   13.1959    1.0392   22.9232 O   0  0  0  0  0  0  0  0  0  0  0  0
    6.2871   -2.0395   26.0538 C   0  0  0  0  0  0  0  0  0  0  0  0
    6.0347   -3.4372   25.5712 C   0  0  0  0  0  0  0  0  0  0  0  0
    5.2129   -4.3798   26.3995 N   0  0  0  0  0  0  0  0  0  0  0  0
    4.6434   -3.9247   27.7104 C   0  0  0  0  0  0  0  0  0  0  0  0
    4.8958   -2.5270   28.1931 C   0  0  0  0  0  0  0  0  0  0  0  0
    4.3262   -2.0720   29.5041 C   0  0  0  0  0  0  0  0  0  0  0  0
    4.5786   -0.6743   29.9866 C   0  0  0  0  0  0  0  0  0  0  0  0
    5.4005    0.2683   29.1583 C   0  0  0  0  0  0  0  0  0  0  0  0
    5.9700   -0.1868   27.8474 C   0  0  0  0  0  0  0  0  0  0  0  0
    5.7176   -1.5845   27.3648 C   0  0  0  0  0  0  0  0  0  0  0  0
   10.8830    2.6441   21.8865 C   0  0  0  0  0  0  0  0  0  0  0  0
   10.6885    6.3009   23.4160 C   0  0  0  0  0  0  0  0  0  0  0  0
   10.2677    4.9682   22.8713 N   0  0  0  0  0  0  0  0  0  0  0  0
   11.3038    3.9768   22.4313 C   0  0  0  0  0  0  0  0  0  0  0  0
   12.7607    4.3181   22.5361 O   0  0  0  0  0  0  0  0  0  0  0  0
    9.3115    4.7442   22.8025 H   0  0  0  0  0  0  0  0  0  0  0  0
    7.6797    1.8860   22.8086 C   0  0  0  0  0  0  0  0  0  0  0  0
    6.4181    2.1697   22.0487 N   0  0  0  0  0  0  0  0  0  0  0  0
    5.7702    2.8240   22.3971 H   0  0  0  0  0  0  0  0  0  0  0  0
    6.1434    1.4565   20.7580 C   0  0  0  0  0  0  0  0  0  0  0  0
    7.1560    0.5019   20.1983 N   0  0  0  0  0  0  0  0  0  0  0  0
    6.8813   -0.2112   18.9077 C   0  0  0  0  0  0  0  0  0  0  0  0
    5.5940    0.0302   18.1765 N   0  0  0  0  0  0  0  0  0  0  0  0
    4.5814    0.9849   18.7362 C   0  0  0  0  0  0  0  0  0  0  0  0
    4.8560    1.6980   20.0269 N   0  0  0  0  0  0  0  0  0  0  0  0
 29 30  1  0  0  0
 30 31  1  0  0  0
 31 32  2  0  0  0
 31 28  1  0  0  0
 28  1  1  0  0  0
  1  2  1  0  0  0
  3  2  1  0  0  0
  3  4  1  0  0  0
  4  5  2  0  0  0
  4  6  1  0  0  0
  6 18  1  0  0  0
 18 19  2  0  0  0
 19 20  1  0  0  0
 20 21  2  0  0  0
 21 22  1  0  0  0
 22 23  2  0  0  0
 23 24  1  0  0  0
 24 25  2  0  0  0
 25 26  1  0  0  0
 26 27  2  0  0  0
  6  7  1  0  0  0
  7  8  1  0  0  0
  8 34  1  0  0  0
 34 35  1  0  0  0
 35 37  1  0  0  0
 37 38  2  0  0  0
 38 39  1  0  0  0
 39 40  2  0  0  0
 40 41  1  0  0  0
 41 42  2  0  0  0
  3  9  1  0  0  0
  9 10  2  0  0  0
 10 11  1  0  0  0
 11 12  1  0  0  0
 11 13  2  0  0  0
 13 14  1  0  0  0
 14 15  2  0  0  0
 15 16  1  0  0  0
 16 17  2  0  0  0
 16  1  1  0  0  0
  8  3  1  0  0  0
 42 37  1  0  0  0
 15  9  1  0  0  0
 27 18  1  0  0  0
 27 22  1  0  0  0
 30 33  1  0  0  0
 35 36  1  0  0  0
M  END
> <minimizedAffinity>
-8.87695

> <CNNscore>
0.1329381615

> <CNNaffinity>
6.7749757767

> <CNN_VS>
0.9006528258

> <CNNaffinity_variance>
0.1299473494

$$$$



 42 47  0  0  0  0  0  0  0  0999 V2000
   10.2871    0.8180   23.2360 N   0  0  0  0  0  0  0  0  0  0  0  0
    8.8969    0.3226   23.5041 C   0  0  0  0  0  0  0  0  0  0  0  0
    8.6804   -0.8436   24.4223 C   0  0  0  0  0  0  0  0  0  0  0  0
    8.3103   -1.9927   25.3125 C   0  0  0  0  0  0  0  0  0  0  0  0
    8.8353   -2.8218   26.0290 O   0  0  0  0  0  0  0  0  0  0  0  0
    6.8173   -2.1362   25.2877 N   0  0  0  0  0  0  0  0  0  0  0  0
    6.2647   -1.0757   24.3822 C   0  0  0  0  0  0  0  0  0  0  0  0
    7.4162   -0.2768   23.8474 C   0  0  0  0  0  0  0  0  0  0  0  0
    9.8541   -1.5143   25.0725 C   0  0  0  0  0  0  0  0  0  0  0  0
    9.6375   -2.6805   25.9907 C   0  0  0  0  0  0  0  0  0  0  0  0
   10.8112   -3.3512   26.6408 C   0  0  0  0  0  0  0  0  0  0  0  0
   10.5946   -4.5174   27.5590 Cl  0  0  0  0  0  0  0  0  0  0  0  0
   12.2014   -2.8558   26.3726 C   0  0  0  0  0  0  0  0  0  0  0  0
   12.4179   -1.6896   25.4544 C   0  0  0  0  0  0  0  0  0  0  0  0
   11.2443   -1.0189   24.8043 C   0  0  0  0  0  0  0  0  0  0  0  0
   11.4608    0.1473   23.8860 C   0  0  0  0  0  0  0  0  0  0  0  0
   12.8510    0.6427   23.6179 O   0  0  0  0  0  0  0  0  0  0  0  0
    6.0175   -3.1604   26.0369 C   0  0  0  0  0  0  0  0  0  0  0  0
    5.6703   -4.4654   25.3839 C   0  0  0  0  0  0  0  0  0  0  0  0
    4.8705   -5.4896   26.1331 N   0  0  0  0  0  0  0  0  0  0  0  0
    4.4178   -5.2088   27.5352 C   0  0  0  0  0  0  0  0  0  0  0  0
    4.7649   -3.9037   28.1883 C   0  0  0  0  0  0  0  0  0  0  0  0
    4.3122   -3.6229   29.5905 C   0  0  0  0  0  0  0  0  0  0  0  0
    4.6594   -2.3178   30.2434 C   0  0  0  0  0  0  0  0  0  0  0  0
    5.4592   -1.2936   29.4943 C   0  0  0  0  0  0  0  0  0  0  0  0
    5.9119   -1.5745   28.0921 C   0  0  0  0  0  0  0  0  0  0  0  0
    5.5648   -2.8795   27.4391 C   0  0  0  0  0  0  0  0  0  0  0  0
   10.5036    1.9842   22.3177 C   0  0  0  0  0  0  0  0  0  0  0  0
    9.5032    5.6721   23.3892 C   0  0  0  0  0  0  0  0  0  0  0  0
    9.4083    4.2839   22.8290 N   0  0  0  0  0  0  0  0  0  0  0  0
   10.5985    3.3724   22.8779 C   0  0  0  0  0  0  0  0  0  0  0  0
   11.8837    3.8491   23.4872 O   0  0  0  0  0  0  0  0  0  0  0  0
    8.5648    3.9711   22.4291 H   0  0  0  0  0  0  0  0  0  0  0  0
    7.3202    0.8849   22.9034 C   0  0  0  0  0  0  0  0  0  0  0  0
    6.0201    1.1914   22.2209 N   0  0  0  0  0  0  0  0  0  0  0  0
    5.2780    1.5890   22.7313 H   0  0  0  0  0  0  0  0  0  0  0  0
    5.8506    0.8922   20.7609 C   0  0  0  0  0  0  0  0  0  0  0  0
    4.6889    1.4685   20.0071 N   0  0  0  0  0  0  0  0  0  0  0  0
    4.5194    1.1693   18.5472 C   0  0  0  0  0  0  0  0  0  0  0  0
    5.5116    0.2937   17.8408 N   0  0  0  0  0  0  0  0  0  0  0  0
    6.6733   -0.2827   18.5946 C   0  0  0  0  0  0  0  0  0  0  0  0
    6.8428    0.0166   20.0546 N   0  0  0  0  0  0  0  0  0  0  0  0
 29 30  1  0  0  0
 30 31  1  0  0  0
 31 32  2  0  0  0
 31 28  1  0  0  0
 28  1  1  0  0  0
  1  2  1  0  0  0
  3  2  1  0  0  0
  3  4  1  0  0  0
  4  5  2  0  0  0
  4  6  1  0  0  0
  6 18  1  0  0  0
 18 19  2  0  0  0
 19 20  1  0  0  0
 20 21  2  0  0  0
 21 22  1  0  0  0
 22 23  2  0  0  0
 23 24  1  0  0  0
 24 25  2  0  0  0
 25 26  1  0  0  0
 26 27  2  0  0  0
  6  7  1  0  0  0
  7  8  1  0  0  0
  8 34  1  0  0  0
 34 35  1  0  0  0
 35 37  1  0  0  0
 37 38  2  0  0  0
 38 39  1  0  0  0
 39 40  2  0  0  0
 40 41  1  0  0  0
 41 42  2  0  0  0
  3  9  1  0  0  0
  9 10  2  0  0  0
 10 11  1  0  0  0
 11 12  1  0  0  0
 11 13  2  0  0  0
 13 14  1  0  0  0
 14 15  2  0  0  0
 15 16  1  0  0  0
 16 17  2  0  0  0
 16  1  1  0  0  0
  8  3  1  0  0  0
 42 37  1  0  0  0
 15  9  1  0  0  0
 27 18  1  0  0  0
 27 22  1  0  0  0
 30 33  1  0  0  0
 35 36  1  0  0  0
M  END
> <minimizedAffinity>
-8.64145

> <CNNscore>
0.1313016117

> <CNNaffinity>
6.6490125656

> <CNN_VS>
0.8730260730

> <CNNaffinity_variance>
0.1865465045

$$$$



 42 47  0  0  0  0  0  0  0  0999 V2000
   10.5528    0.6411   23.1132 N   0  0  0  0  0  0  0  0  0  0  0  0
    9.1639    0.0901   23.2440 C   0  0  0  0  0  0  0  0  0  0  0  0
    8.9061   -1.0908   24.1322 C   0  0  0  0  0  0  0  0  0  0  0  0
    8.4976   -2.2606   24.9776 C   0  0  0  0  0  0  0  0  0  0  0  0
    8.9835   -3.0743   25.7379 O   0  0  0  0  0  0  0  0  0  0  0  0
    7.0207   -2.4615   24.8085 N   0  0  0  0  0  0  0  0  0  0  0  0
    6.5165   -1.4160   23.8585 C   0  0  0  0  0  0  0  0  0  0  0  0
    7.6817   -0.5689   23.4405 C   0  0  0  0  0  0  0  0  0  0  0  0
   10.0373   -1.7209   24.8895 C   0  0  0  0  0  0  0  0  0  0  0  0
    9.7795   -2.9018   25.7777 C   0  0  0  0  0  0  0  0  0  0  0  0
   10.9107   -3.5318   26.5349 C   0  0  0  0  0  0  0  0  0  0  0  0
   10.6529   -4.7128   27.4231 Cl  0  0  0  0  0  0  0  0  0  0  0  0
   12.2996   -2.9808   26.4041 C   0  0  0  0  0  0  0  0  0  0  0  0
   12.5574   -1.7998   25.5160 C   0  0  0  0  0  0  0  0  0  0  0  0
   11.4263   -1.1699   24.7587 C   0  0  0  0  0  0  0  0  0  0  0  0
   11.6840    0.0112   23.8705 C   0  0  0  0  0  0  0  0  0  0  0  0
   13.0730    0.5622   23.7397 O   0  0  0  0  0  0  0  0  0  0  0  0
    6.1934   -3.5219   25.4728 C   0  0  0  0  0  0  0  0  0  0  0  0
    5.8479   -4.7785   24.7302 C   0  0  0  0  0  0  0  0  0  0  0  0
    5.0206   -5.8389   25.3944 N   0  0  0  0  0  0  0  0  0  0  0  0
    4.5389   -5.6426   26.8013 C   0  0  0  0  0  0  0  0  0  0  0  0
    4.8844   -4.3859   27.5440 C   0  0  0  0  0  0  0  0  0  0  0  0
    4.4027   -4.1897   28.9509 C   0  0  0  0  0  0  0  0  0  0  0  0
    4.7483   -2.9330   29.6935 C   0  0  0  0  0  0  0  0  0  0  0  0
    5.5756   -1.8727   29.0292 C   0  0  0  0  0  0  0  0  0  0  0  0
    6.0573   -2.0690   27.6223 C   0  0  0  0  0  0  0  0  0  0  0  0
    5.7117   -3.3256   26.8797 C   0  0  0  0  0  0  0  0  0  0  0  0
   10.8106    1.8222   22.2250 C   0  0  0  0  0  0  0  0  0  0  0  0
    9.3111    5.3202   23.3498 C   0  0  0  0  0  0  0  0  0  0  0  0
    9.4023    3.9299   22.7942 N   0  0  0  0  0  0  0  0  0  0  0  0
   10.7195    3.2125   22.7806 C   0  0  0  0  0  0  0  0  0  0  0  0
   11.9456    3.8854   23.3228 O   0  0  0  0  0  0  0  0  0  0  0  0
    8.5975    3.4883   22.4384 H   0  0  0  0  0  0  0  0  0  0  0  0
    7.6313    0.5958   22.4966 C   0  0  0  0  0  0  0  0  0  0  0  0
    7.6348    0.3612   21.0151 N   0  0  0  0  0  0  0  0  0  0  0  0
    8.4209   -0.0444   20.5829 H   0  0  0  0  0  0  0  0  0  0  0  0
    6.4408    0.7447   20.1921 C   0  0  0  0  0  0  0  0  0  0  0  0
    6.3741    0.3614   18.7435 N   0  0  0  0  0  0  0  0  0  0  0  0
    5.1801    0.7448   17.9205 C   0  0  0  0  0  0  0  0  0  0  0  0
    4.0528    1.5115   18.5461 N   0  0  0  0  0  0  0  0  0  0  0  0
    4.1195    1.8948   19.9948 C   0  0  0  0  0  0  0  0  0  0  0  0
    5.3135    1.5113   20.8178 N   0  0  0  0  0  0  0  0  0  0  0  0
 29 30  1  0  0  0
 30 31  1  0  0  0
 31 32  2  0  0  0
 31 28  1  0  0  0
 28  1  1  0  0  0
  1  2  1  0  0  0
  3  2  1  0  0  0
  3  4  1  0  0  0
  4  5  2  0  0  0
  4  6  1  0  0  0
  6 18  1  0  0  0
 18 19  2  0  0  0
 19 20  1  0  0  0
 20 21  2  0  0  0
 21 22  1  0  0  0
 22 23  2  0  0  0
 23 24  1  0  0  0
 24 25  2  0  0  0
 25 26  1  0  0  0
 26 27  2  0  0  0
  6  7  1  0  0  0
  7  8  1  0  0  0
  8 34  1  0  0  0
 34 35  1  0  0  0
 35 37  1  0  0  0
 37 38  2  0  0  0
 38 39  1  0  0  0
 39 40  2  0  0  0
 40 41  1  0  0  0
 41 42  2  0  0  0
  3  9  1  0  0  0
  9 10  2  0  0  0
 10 11  1  0  0  0
 11 12  1  0  0  0
 11 13  2  0  0  0
 13 14  1  0  0  0
 14 15  2  0  0  0
 15 16  1  0  0  0
 16 17  2  0  0  0
 16  1  1  0  0  0
  8  3  1  0  0  0
 42 37  1  0  0  0
 15  9  1  0  0  0
 27 18  1  0  0  0
 27 22  1  0  0  0
 30 33  1  0  0  0
 35 36  1  0  0  0
M  END
> <minimizedAffinity>
-8.72046

> <CNNscore>
0.1049750969

> <CNNaffinity>
6.7738370895

> <CNN_VS>
0.7110841870

> <CNNaffinity_variance>
0.1117627248

$$$$



 42 47  0  0  0  0  0  0  0  0999 V2000
   10.5591    0.9099   23.1076 N   0  0  0  0  0  0  0  0  0  0  0  0
    9.1549    0.4080   23.2696 C   0  0  0  0  0  0  0  0  0  0  0  0
    8.8762   -0.7661   24.1605 C   0  0  0  0  0  0  0  0  0  0  0  0
    8.4463   -1.9235   25.0124 C   0  0  0  0  0  0  0  0  0  0  0  0
    8.9207   -2.7565   25.7590 O   0  0  0  0  0  0  0  0  0  0  0  0
    6.9597   -2.0714   24.8775 N   0  0  0  0  0  0  0  0  0  0  0  0
    6.4708   -1.0055   23.9422 C   0  0  0  0  0  0  0  0  0  0  0  0
    7.6553   -0.1988   23.4991 C   0  0  0  0  0  0  0  0  0  0  0  0
   10.0017   -1.4384   24.8895 C   0  0  0  0  0  0  0  0  0  0  0  0
    9.7230   -2.6124   25.7805 C   0  0  0  0  0  0  0  0  0  0  0  0
   10.8485   -3.2846   26.5094 C   0  0  0  0  0  0  0  0  0  0  0  0
   10.5698   -4.4587   27.4004 Cl  0  0  0  0  0  0  0  0  0  0  0  0
   12.2527   -2.7827   26.3474 C   0  0  0  0  0  0  0  0  0  0  0  0
   12.5314   -1.6086   25.4564 C   0  0  0  0  0  0  0  0  0  0  0  0
   11.4059   -0.9365   24.7275 C   0  0  0  0  0  0  0  0  0  0  0  0
   11.6846    0.2377   23.8365 C   0  0  0  0  0  0  0  0  0  0  0  0
   13.0889    0.7396   23.6745 O   0  0  0  0  0  0  0  0  0  0  0  0
    6.1111   -3.1041   25.5583 C   0  0  0  0  0  0  0  0  0  0  0  0
    5.2520   -2.7178   26.7257 C   0  0  0  0  0  0  0  0  0  0  0  0
    4.4034   -3.7504   27.4065 N   0  0  0  0  0  0  0  0  0  0  0  0
    4.4138   -5.1693   26.9199 C   0  0  0  0  0  0  0  0  0  0  0  0
    5.2729   -5.5555   25.7525 C   0  0  0  0  0  0  0  0  0  0  0  0
    5.2833   -6.9744   25.2659 C   0  0  0  0  0  0  0  0  0  0  0  0
    6.1424   -7.3605   24.0984 C   0  0  0  0  0  0  0  0  0  0  0  0
    6.9910   -6.3279   23.4176 C   0  0  0  0  0  0  0  0  0  0  0  0
    6.9806   -4.9091   23.9042 C   0  0  0  0  0  0  0  0  0  0  0  0
    6.1215   -4.5229   25.0717 C   0  0  0  0  0  0  0  0  0  0  0  0
   10.8378    2.0840   22.2166 C   0  0  0  0  0  0  0  0  0  0  0  0
    9.5799    5.6823   23.3211 C   0  0  0  0  0  0  0  0  0  0  0  0
    9.5813    4.2936   22.7541 N   0  0  0  0  0  0  0  0  0  0  0  0
   10.8364    3.4727   22.7835 C   0  0  0  0  0  0  0  0  0  0  0  0
   12.0902    4.0406   23.3800 O   0  0  0  0  0  0  0  0  0  0  0  0
    8.7585    3.9208   22.3627 H   0  0  0  0  0  0  0  0  0  0  0  0
    7.6242    0.9701   22.5596 C   0  0  0  0  0  0  0  0  0  0  0  0
    7.6683    0.7426   21.0777 N   0  0  0  0  0  0  0  0  0  0  0  0
    8.5025    0.4411   20.6506 H   0  0  0  0  0  0  0  0  0  0  0  0
    6.4414    0.9745   20.2464 C   0  0  0  0  0  0  0  0  0  0  0  0
    5.2671    1.7033   20.8294 N   0  0  0  0  0  0  0  0  0  0  0  0
    4.0403    1.9351   19.9982 C   0  0  0  0  0  0  0  0  0  0  0  0
    3.9876    1.4381   18.5839 N   0  0  0  0  0  0  0  0  0  0  0  0
    5.1618    0.7093   18.0008 C   0  0  0  0  0  0  0  0  0  0  0  0
    6.3887    0.4775   18.8321 N   0  0  0  0  0  0  0  0  0  0  0  0
 29 30  1  0  0  0
 30 31  1  0  0  0
 31 32  2  0  0  0
 31 28  1  0  0  0
 28  1  1  0  0  0
  1  2  1  0  0  0
  3  2  1  0  0  0
  3  4  1  0  0  0
  4  5  2  0  0  0
  4  6  1  0  0  0
  6 18  1  0  0  0
 18 19  2  0  0  0
 19 20  1  0  0  0
 20 21  2  0  0  0
 21 22  1  0  0  0
 22 23  2  0  0  0
 23 24  1  0  0  0
 24 25  2  0  0  0
 25 26  1  0  0  0
 26 27  2  0  0  0
  6  7  1  0  0  0
  7  8  1  0  0  0
  8 34  1  0  0  0
 34 35  1  0  0  0
 35 37  1  0  0  0
 37 38  2  0  0  0
 38 39  1  0  0  0
 39 40  2  0  0  0
 40 41  1  0  0  0
 41 42  2  0  0  0
  3  9  1  0  0  0
  9 10  2  0  0  0
 10 11  1  0  0  0
 11 12  1  0  0  0
 11 13  2  0  0  0
 13 14  1  0  0  0
 14 15  2  0  0  0
 15 16  1  0  0  0
 16 17  2  0  0  0
 16  1  1  0  0  0
  8  3  1  0  0  0
 42 37  1  0  0  0
 15  9  1  0  0  0
 27 18  1  0  0  0
 27 22  1  0  0  0
 30 33  1  0  0  0
 35 36  1  0  0  0
M  END
> <minimizedAffinity>
-9.04436

> <CNNscore>
0.0897390395

> <CNNaffinity>
6.7514176369

> <CNN_VS>
0.6058657169

> <CNNaffinity_variance>
0.1779674143

$$$$
