


 36 41  0  0  0  0  0  0  0  0999 V2000
   -8.1529   -1.6802  -23.8433 N   0  0  0  0  0  0  0  0  0  0  0  0
   -8.3803   -0.2053  -23.9954 C   0  0  0  0  0  0  0  0  0  0  0  0
   -9.7556    0.3644  -23.8117 C   0  0  0  0  0  0  0  0  0  0  0  0
  -11.0679    1.0746  -23.6584 C   0  0  0  0  0  0  0  0  0  0  0  0
  -12.2323    0.8348  -23.4074 O   0  0  0  0  0  0  0  0  0  0  0  0
  -10.8340    2.5371  -23.8959 N   0  0  0  0  0  0  0  0  0  0  0  0
   -9.3771    2.7308  -24.1959 C   0  0  0  0  0  0  0  0  0  0  0  0
   -8.7107    1.3879  -24.1439 C   0  0  0  0  0  0  0  0  0  0  0  0
   -7.2548    1.1164  -24.3822 C   0  0  0  0  0  0  0  0  0  0  0  0
  -10.9037   -0.5408  -23.4757 C   0  0  0  0  0  0  0  0  0  0  0  0
  -12.2790    0.0289  -23.2920 C   0  0  0  0  0  0  0  0  0  0  0  0
  -13.4270   -0.8762  -22.9561 C   0  0  0  0  0  0  0  0  0  0  0  0
  -14.8024   -0.3065  -22.7723 F   0  0  0  0  0  0  0  0  0  0  0  0
  -13.1996   -2.3511  -22.8039 C   0  0  0  0  0  0  0  0  0  0  0  0
  -11.8242   -2.9208  -22.9876 C   0  0  0  0  0  0  0  0  0  0  0  0
  -10.6763   -2.0156  -23.3236 C   0  0  0  0  0  0  0  0  0  0  0  0
   -9.3008   -2.5853  -23.5073 C   0  0  0  0  0  0  0  0  0  0  0  0
   -9.3970   -3.6627  -23.3468 O   0  0  0  0  0  0  0  0  0  0  0  0
  -11.8743    3.6164  -23.8426 C   0  0  0  0  0  0  0  0  0  0  0  0
  -12.6551    3.8440  -22.5822 C   0  0  0  0  0  0  0  0  0  0  0  0
  -13.6954    4.9233  -22.5290 N   0  0  0  0  0  0  0  0  0  0  0  0
  -13.9549    5.7750  -23.7361 C   0  0  0  0  0  0  0  0  0  0  0  0
  -13.1741    5.5474  -24.9965 C   0  0  0  0  0  0  0  0  0  0  0  0
  -13.4336    6.3992  -26.2037 C   0  0  0  0  0  0  0  0  0  0  0  0
  -12.6527    6.1716  -27.4640 C   0  0  0  0  0  0  0  0  0  0  0  0
  -11.6124    5.0923  -27.5172 C   0  0  0  0  0  0  0  0  0  0  0  0
  -11.3529    4.2406  -26.3101 C   0  0  0  0  0  0  0  0  0  0  0  0
  -12.1338    4.4681  -25.0497 C   0  0  0  0  0  0  0  0  0  0  0  0
   -6.7774   -2.2499  -24.0270 C   0  0  0  0  0  0  0  0  0  0  0  0
   -6.5018   -4.8927  -24.3184 N   0  0  0  0  0  0  0  0  0  0  0  0
   -6.1141   -6.0247  -23.4138 N   0  0  0  0  0  0  0  0  0  0  0  0
   -5.8337   -5.4566  -22.0542 C   0  0  0  0  0  0  0  0  0  0  0  0
   -6.0481   -3.9734  -22.1185 C   0  0  0  0  0  0  0  0  0  0  0  0
   -6.4609   -3.6248  -23.5178 C   0  0  0  0  0  0  0  0  0  0  0  0
   -7.0017   -6.3608  -26.4028 C   0  0  0  0  0  0  0  0  0  0  0  0
   -6.8662   -5.0082  -25.7689 C   0  0  0  0  0  0  0  0  0  0  0  0
 35 36  1  0  0  0
 36 30  1  0  0  0
 30 31  1  0  0  0
 31 32  2  0  0  0
 32 33  1  0  0  0
 33 34  2  0  0  0
 34 29  1  0  0  0
 29  1  1  0  0  0
  1  2  1  0  0  0
  3  2  1  0  0  0
  3  4  1  0  0  0
  4  5  2  0  0  0
  4  6  1  0  0  0
  6 19  1  0  0  0
 19 20  2  0  0  0
 20 21  1  0  0  0
 21 22  2  0  0  0
 22 23  1  0  0  0
 23 24  2  0  0  0
 24 25  1  0  0  0
 25 26  2  0  0  0
 26 27  1  0  0  0
 27 28  2  0  0  0
  6  7  1  0  0  0
  7  8  1  0  0  0
  8  9  1  0  0  0
  3 10  1  0  0  0
 10 11  2  0  0  0
 11 12  1  0  0  0
 12 13  1  0  0  0
 12 14  2  0  0  0
 14 15  1  0  0  0
 15 16  2  0  0  0
 16 17  1  0  0  0
 17 18  2  0  0  0
 34 30  1  0  0  0
 17  1  1  0  0  0
  8  3  1  0  0  0
 16 10  1  0  0  0
 28 19  1  0  0  0
 28 23  1  0  0  0
M  END
> <minimizedAffinity>
-7.67868

> <CNNscore>
0.7673947811

> <CNNaffinity>
6.8782358170

> <CNN_VS>
5.2783222198

> <CNNaffinity_variance>
0.0322703160

$$$$



 36 41  0  0  0  0  0  0  0  0999 V2000
   -7.8548   -1.3899  -23.0388 N   0  0  0  0  0  0  0  0  0  0  0  0
   -8.0429    0.0706  -23.3246 C   0  0  0  0  0  0  0  0  0  0  0  0
   -9.4255    0.6453  -23.4144 C   0  0  0  0  0  0  0  0  0  0  0  0
  -10.7398    1.3584  -23.5328 C   0  0  0  0  0  0  0  0  0  0  0  0
  -11.9315    1.1308  -23.4671 O   0  0  0  0  0  0  0  0  0  0  0  0
  -10.4589    2.8029  -23.8235 N   0  0  0  0  0  0  0  0  0  0  0  0
   -8.9710    2.9826  -23.8847 C   0  0  0  0  0  0  0  0  0  0  0  0
   -8.3323    1.6491  -23.6319 C   0  0  0  0  0  0  0  0  0  0  0  0
   -6.8591    1.3686  -23.6019 C   0  0  0  0  0  0  0  0  0  0  0  0
  -10.6201   -0.2406  -23.2185 C   0  0  0  0  0  0  0  0  0  0  0  0
  -12.0027    0.3341  -23.3083 C   0  0  0  0  0  0  0  0  0  0  0  0
  -13.1972   -0.5517  -23.1123 C   0  0  0  0  0  0  0  0  0  0  0  0
  -14.5799    0.0230  -23.2021 F   0  0  0  0  0  0  0  0  0  0  0  0
  -13.0091   -2.0122  -22.8266 C   0  0  0  0  0  0  0  0  0  0  0  0
  -11.6265   -2.5868  -22.7368 C   0  0  0  0  0  0  0  0  0  0  0  0
  -10.4320   -1.7010  -22.9327 C   0  0  0  0  0  0  0  0  0  0  0  0
   -9.0493   -2.2757  -22.8429 C   0  0  0  0  0  0  0  0  0  0  0  0
   -9.1787   -3.3404  -22.6300 O   0  0  0  0  0  0  0  0  0  0  0  0
  -11.4857    3.8788  -24.0186 C   0  0  0  0  0  0  0  0  0  0  0  0
  -12.3285    4.3299  -22.8626 C   0  0  0  0  0  0  0  0  0  0  0  0
  -13.3553    5.4058  -23.0577 N   0  0  0  0  0  0  0  0  0  0  0  0
  -13.5393    6.0307  -24.4089 C   0  0  0  0  0  0  0  0  0  0  0  0
  -12.6965    5.5796  -25.5649 C   0  0  0  0  0  0  0  0  0  0  0  0
  -12.8805    6.2046  -26.9161 C   0  0  0  0  0  0  0  0  0  0  0  0
  -12.0377    5.7535  -28.0721 C   0  0  0  0  0  0  0  0  0  0  0  0
  -11.0110    4.6776  -27.8769 C   0  0  0  0  0  0  0  0  0  0  0  0
  -10.8269    4.0527  -26.5258 C   0  0  0  0  0  0  0  0  0  0  0  0
  -11.6697    4.5037  -25.3698 C   0  0  0  0  0  0  0  0  0  0  0  0
   -6.4721   -1.9645  -22.9490 C   0  0  0  0  0  0  0  0  0  0  0  0
   -5.7878   -4.0804  -21.4657 N   0  0  0  0  0  0  0  0  0  0  0  0
   -5.3297   -4.2807  -20.0514 N   0  0  0  0  0  0  0  0  0  0  0  0
   -5.2689   -2.9362  -19.3890 C   0  0  0  0  0  0  0  0  0  0  0  0
   -5.6895   -1.9050  -20.3938 C   0  0  0  0  0  0  0  0  0  0  0  0
   -6.0102   -2.6120  -21.6773 C   0  0  0  0  0  0  0  0  0  0  0  0
   -6.8289   -6.3570  -22.1605 C   0  0  0  0  0  0  0  0  0  0  0  0
   -5.9883   -5.1589  -22.4887 C   0  0  0  0  0  0  0  0  0  0  0  0
 35 36  1  0  0  0
 36 30  1  0  0  0
 30 31  1  0  0  0
 31 32  2  0  0  0
 32 33  1  0  0  0
 33 34  2  0  0  0
 34 29  1  0  0  0
 29  1  1  0  0  0
  1  2  1  0  0  0
  3  2  1  0  0  0
  3  4  1  0  0  0
  4  5  2  0  0  0
  4  6  1  0  0  0
  6 19  1  0  0  0
 19 20  2  0  0  0
 20 21  1  0  0  0
 21 22  2  0  0  0
 22 23  1  0  0  0
 23 24  2  0  0  0
 24 25  1  0  0  0
 25 26  2  0  0  0
 26 27  1  0  0  0
 27 28  2  0  0  0
  6  7  1  0  0  0
  7  8  1  0  0  0
  8  9  1  0  0  0
  3 10  1  0  0  0
 10 11  2  0  0  0
 11 12  1  0  0  0
 12 13  1  0  0  0
 12 14  2  0  0  0
 14 15  1  0  0  0
 15 16  2  0  0  0
 16 17  1  0  0  0
 17 18  2  0  0  0
 34 30  1  0  0  0
 17  1  1  0  0  0
  8  3  1  0  0  0
 16 10  1  0  0  0
 28 19  1  0  0  0
 28 23  1  0  0  0
M  END
> <minimizedAffinity>
-8.15488

> <CNNscore>
0.7269529700

> <CNNaffinity>
6.7245397568

> <CNN_VS>
4.8884239197

> <CNNaffinity_variance>
0.1195799261

$$$$



 36 41  0  0  0  0  0  0  0  0999 V2000
   -7.5052   -1.6496  -23.1950 N   0  0  0  0  0  0  0  0  0  0  0  0
   -7.5296   -0.2821  -23.8109 C   0  0  0  0  0  0  0  0  0  0  0  0
   -8.8390    0.4096  -24.0496 C   0  0  0  0  0  0  0  0  0  0  0  0
  -10.0651    1.2210  -24.3469 C   0  0  0  0  0  0  0  0  0  0  0  0
  -11.2740    1.1512  -24.2475 O   0  0  0  0  0  0  0  0  0  0  0  0
   -9.6255    2.5187  -24.9574 N   0  0  0  0  0  0  0  0  0  0  0  0
   -8.1276    2.5094  -25.0374 C   0  0  0  0  0  0  0  0  0  0  0  0
   -7.6416    1.2060  -24.4763 C   0  0  0  0  0  0  0  0  0  0  0  0
   -6.2095    0.7746  -24.3621 C   0  0  0  0  0  0  0  0  0  0  0  0
  -10.1240   -0.2661  -23.6724 C   0  0  0  0  0  0  0  0  0  0  0  0
  -11.4333    0.4257  -23.9111 C   0  0  0  0  0  0  0  0  0  0  0  0
  -12.7182   -0.2501  -23.5339 C   0  0  0  0  0  0  0  0  0  0  0  0
  -14.0277    0.4417  -23.7726 F   0  0  0  0  0  0  0  0  0  0  0  0
  -12.6938   -1.6176  -22.9180 C   0  0  0  0  0  0  0  0  0  0  0  0
  -11.3844   -2.3093  -22.6793 C   0  0  0  0  0  0  0  0  0  0  0  0
  -10.0995   -1.6336  -23.0565 C   0  0  0  0  0  0  0  0  0  0  0  0
   -8.7901   -2.3253  -22.8178 C   0  0  0  0  0  0  0  0  0  0  0  0
   -9.0370   -3.2910  -22.3680 O   0  0  0  0  0  0  0  0  0  0  0  0
  -10.5257    3.6304  -25.4087 C   0  0  0  0  0  0  0  0  0  0  0  0
  -10.3710    4.2095  -26.7838 C   0  0  0  0  0  0  0  0  0  0  0  0
  -11.2712    5.3212  -27.2351 N   0  0  0  0  0  0  0  0  0  0  0  0
  -12.3261    5.8539  -26.3113 C   0  0  0  0  0  0  0  0  0  0  0  0
  -12.4807    5.2749  -24.9362 C   0  0  0  0  0  0  0  0  0  0  0  0
  -13.5357    5.8076  -24.0123 C   0  0  0  0  0  0  0  0  0  0  0  0
  -13.6903    5.2285  -22.6373 C   0  0  0  0  0  0  0  0  0  0  0  0
  -12.7901    4.1168  -22.1860 C   0  0  0  0  0  0  0  0  0  0  0  0
  -11.7352    3.5841  -23.1098 C   0  0  0  0  0  0  0  0  0  0  0  0
  -11.5805    4.1631  -24.4849 C   0  0  0  0  0  0  0  0  0  0  0  0
   -6.1957   -2.3414  -22.9563 C   0  0  0  0  0  0  0  0  0  0  0  0
   -5.6752   -4.1997  -21.1067 N   0  0  0  0  0  0  0  0  0  0  0  0
   -5.2907   -4.1747  -19.6569 N   0  0  0  0  0  0  0  0  0  0  0  0
   -5.1992   -2.7408  -19.2262 C   0  0  0  0  0  0  0  0  0  0  0  0
   -5.5271   -1.8795  -20.4098 C   0  0  0  0  0  0  0  0  0  0  0  0
   -5.8212   -2.7811  -21.5719 C   0  0  0  0  0  0  0  0  0  0  0  0
   -5.6973   -6.7874  -21.3374 C   0  0  0  0  0  0  0  0  0  0  0  0
   -5.8780   -5.4276  -21.9440 C   0  0  0  0  0  0  0  0  0  0  0  0
 35 36  1  0  0  0
 36 30  1  0  0  0
 30 31  1  0  0  0
 31 32  2  0  0  0
 32 33  1  0  0  0
 33 34  2  0  0  0
 34 29  1  0  0  0
 29  1  1  0  0  0
  1  2  1  0  0  0
  3  2  1  0  0  0
  3  4  1  0  0  0
  4  5  2  0  0  0
  4  6  1  0  0  0
  6 19  1  0  0  0
 19 20  2  0  0  0
 20 21  1  0  0  0
 21 22  2  0  0  0
 22 23  1  0  0  0
 23 24  2  0  0  0
 24 25  1  0  0  0
 25 26  2  0  0  0
 26 27  1  0  0  0
 27 28  2  0  0  0
  6  7  1  0  0  0
  7  8  1  0  0  0
  8  9  1  0  0  0
  3 10  1  0  0  0
 10 11  2  0  0  0
 11 12  1  0  0  0
 12 13  1  0  0  0
 12 14  2  0  0  0
 14 15  1  0  0  0
 15 16  2  0  0  0
 16 17  1  0  0  0
 17 18  2  0  0  0
 34 30  1  0  0  0
 17  1  1  0  0  0
  8  3  1  0  0  0
 16 10  1  0  0  0
 28 19  1  0  0  0
 28 23  1  0  0  0
M  END
> <minimizedAffinity>
-8.37047

> <CNNscore>
0.5497427583

> <CNNaffinity>
6.4488716125

> <CNN_VS>
3.5452203751

> <CNNaffinity_variance>
0.4727813303

$$$$



 36 41  0  0  0  0  0  0  0  0999 V2000
   -9.8791    2.6492  -24.2520 N   0  0  0  0  0  0  0  0  0  0  0  0
   -8.8713    1.5477  -24.3970 C   0  0  0  0  0  0  0  0  0  0  0  0
   -9.2738    0.1249  -24.1451 C   0  0  0  0  0  0  0  0  0  0  0  0
   -9.5281   -1.3372  -23.9274 C   0  0  0  0  0  0  0  0  0  0  0  0
  -10.4309   -2.0888  -23.6165 O   0  0  0  0  0  0  0  0  0  0  0  0
   -8.2462   -2.0736  -24.1811 N   0  0  0  0  0  0  0  0  0  0  0  0
   -7.1995   -1.0666  -24.5556 C   0  0  0  0  0  0  0  0  0  0  0  0
   -7.8346    0.2922  -24.5334 C   0  0  0  0  0  0  0  0  0  0  0  0
   -7.1506    1.5903  -24.8449 C   0  0  0  0  0  0  0  0  0  0  0  0
  -10.6842   -0.1965  -23.7482 C   0  0  0  0  0  0  0  0  0  0  0  0
  -11.0867   -1.6194  -23.4964 C   0  0  0  0  0  0  0  0  0  0  0  0
  -12.4971   -1.9407  -23.0994 C   0  0  0  0  0  0  0  0  0  0  0  0
  -12.8997   -3.3636  -22.8476 F   0  0  0  0  0  0  0  0  0  0  0  0
  -13.5049   -0.8393  -22.9544 C   0  0  0  0  0  0  0  0  0  0  0  0
  -13.1024    0.5836  -23.2063 C   0  0  0  0  0  0  0  0  0  0  0  0
  -11.6920    0.9049  -23.6032 C   0  0  0  0  0  0  0  0  0  0  0  0
  -11.2895    2.3278  -23.8551 C   0  0  0  0  0  0  0  0  0  0  0  0
  -12.1870    2.9293  -23.6864 O   0  0  0  0  0  0  0  0  0  0  0  0
   -8.0461   -3.5567  -24.0782 C   0  0  0  0  0  0  0  0  0  0  0  0
   -7.4208   -4.1456  -22.8485 C   0  0  0  0  0  0  0  0  0  0  0  0
   -7.2207   -5.6287  -22.7457 N   0  0  0  0  0  0  0  0  0  0  0  0
   -7.6459   -6.5227  -23.8725 C   0  0  0  0  0  0  0  0  0  0  0  0
   -8.2711   -5.9337  -25.1023 C   0  0  0  0  0  0  0  0  0  0  0  0
   -8.6963   -6.8279  -26.2292 C   0  0  0  0  0  0  0  0  0  0  0  0
   -9.3216   -6.2388  -27.4589 C   0  0  0  0  0  0  0  0  0  0  0  0
   -9.5217   -4.7558  -27.5617 C   0  0  0  0  0  0  0  0  0  0  0  0
   -9.0965   -3.8617  -26.4348 C   0  0  0  0  0  0  0  0  0  0  0  0
   -8.4712   -4.4507  -25.2051 C   0  0  0  0  0  0  0  0  0  0  0  0
   -9.4765    4.0721  -24.5039 C   0  0  0  0  0  0  0  0  0  0  0  0
  -10.7050    5.4498  -26.4373 N   0  0  0  0  0  0  0  0  0  0  0  0
  -10.3749    5.8127  -27.8548 N   0  0  0  0  0  0  0  0  0  0  0  0
   -9.0318    5.2302  -28.1817 C   0  0  0  0  0  0  0  0  0  0  0  0
   -8.5318    4.5073  -26.9662 C   0  0  0  0  0  0  0  0  0  0  0  0
   -9.5659    4.6430  -25.8881 C   0  0  0  0  0  0  0  0  0  0  0  0
  -13.2720    5.2330  -26.1004 C   0  0  0  0  0  0  0  0  0  0  0  0
  -11.9548    5.8274  -25.6987 C   0  0  0  0  0  0  0  0  0  0  0  0
 35 36  1  0  0  0
 36 30  1  0  0  0
 30 31  1  0  0  0
 31 32  2  0  0  0
 32 33  1  0  0  0
 33 34  2  0  0  0
 34 29  1  0  0  0
 29  1  1  0  0  0
  1  2  1  0  0  0
  3  2  1  0  0  0
  3  4  1  0  0  0
  4  5  2  0  0  0
  4  6  1  0  0  0
  6 19  1  0  0  0
 19 20  2  0  0  0
 20 21  1  0  0  0
 21 22  2  0  0  0
 22 23  1  0  0  0
 23 24  2  0  0  0
 24 25  1  0  0  0
 25 26  2  0  0  0
 26 27  1  0  0  0
 27 28  2  0  0  0
  6  7  1  0  0  0
  7  8  1  0  0  0
  8  9  1  0  0  0
  3 10  1  0  0  0
 10 11  2  0  0  0
 11 12  1  0  0  0
 12 13  1  0  0  0
 12 14  2  0  0  0
 14 15  1  0  0  0
 15 16  2  0  0  0
 16 17  1  0  0  0
 17 18  2  0  0  0
 34 30  1  0  0  0
 17  1  1  0  0  0
  8  3  1  0  0  0
 16 10  1  0  0  0
 28 19  1  0  0  0
 28 23  1  0  0  0
M  END
> <minimizedAffinity>
-7.48789

> <CNNscore>
0.5319879651

> <CNNaffinity>
6.7268152237

> <CNN_VS>
3.5785846710

> <CNNaffinity_variance>
0.0953304023

$$$$



 36 41  0  0  0  0  0  0  0  0999 V2000
  -10.9197    3.3848  -23.9441 N   0  0  0  0  0  0  0  0  0  0  0  0
   -9.6291    2.6203  -23.9506 C   0  0  0  0  0  0  0  0  0  0  0  0
   -9.6355    1.1361  -23.7339 C   0  0  0  0  0  0  0  0  0  0  0  0
   -9.4856   -0.3427  -23.5323 C   0  0  0  0  0  0  0  0  0  0  0  0
  -10.1665   -1.3278  -23.3267 O   0  0  0  0  0  0  0  0  0  0  0  0
   -8.0256   -0.6765  -23.6170 N   0  0  0  0  0  0  0  0  0  0  0  0
   -7.2732    0.5960  -23.8710 C   0  0  0  0  0  0  0  0  0  0  0  0
   -8.2681    1.7163  -23.9432 C   0  0  0  0  0  0  0  0  0  0  0  0
   -7.9513    3.1627  -24.1828 C   0  0  0  0  0  0  0  0  0  0  0  0
  -10.9324    0.4163  -23.5107 C   0  0  0  0  0  0  0  0  0  0  0  0
  -10.9387   -1.0680  -23.2940 C   0  0  0  0  0  0  0  0  0  0  0  0
  -12.2357   -1.7878  -23.0707 C   0  0  0  0  0  0  0  0  0  0  0  0
  -12.2420   -3.2721  -22.8540 F   0  0  0  0  0  0  0  0  0  0  0  0
  -13.5262   -1.0233  -23.0642 C   0  0  0  0  0  0  0  0  0  0  0  0
  -13.5199    0.4609  -23.2809 C   0  0  0  0  0  0  0  0  0  0  0  0
  -12.2230    1.1807  -23.5041 C   0  0  0  0  0  0  0  0  0  0  0  0
  -12.2166    2.6650  -23.7208 C   0  0  0  0  0  0  0  0  0  0  0  0
  -13.2622    2.9812  -23.6714 O   0  0  0  0  0  0  0  0  0  0  0  0
   -7.4239   -2.0429  -23.4730 C   0  0  0  0  0  0  0  0  0  0  0  0
   -6.8109   -2.4588  -22.1686 C   0  0  0  0  0  0  0  0  0  0  0  0
   -6.2091   -3.8252  -22.0246 N   0  0  0  0  0  0  0  0  0  0  0  0
   -6.2203   -4.7757  -23.1849 C   0  0  0  0  0  0  0  0  0  0  0  0
   -6.8332   -4.3598  -24.4893 C   0  0  0  0  0  0  0  0  0  0  0  0
   -6.8443   -5.3104  -25.6497 C   0  0  0  0  0  0  0  0  0  0  0  0
   -7.4573   -4.8943  -26.9540 C   0  0  0  0  0  0  0  0  0  0  0  0
   -8.0591   -3.5279  -27.0980 C   0  0  0  0  0  0  0  0  0  0  0  0
   -8.0479   -2.5775  -25.9377 C   0  0  0  0  0  0  0  0  0  0  0  0
   -7.4350   -2.9934  -24.6333 C   0  0  0  0  0  0  0  0  0  0  0  0
  -10.9133    4.8691  -24.1608 C   0  0  0  0  0  0  0  0  0  0  0  0
  -11.6459    5.3356  -26.6888 N   0  0  0  0  0  0  0  0  0  0  0  0
  -12.7511    6.1067  -27.3477 N   0  0  0  0  0  0  0  0  0  0  0  0
  -13.5906    6.7262  -26.2700 C   0  0  0  0  0  0  0  0  0  0  0  0
  -13.0044    6.3380  -24.9450 C   0  0  0  0  0  0  0  0  0  0  0  0
  -11.8025    5.4785  -25.2038 C   0  0  0  0  0  0  0  0  0  0  0  0
  -10.7241    4.2146  -28.8437 C   0  0  0  0  0  0  0  0  0  0  0  0
  -10.5727    4.5581  -27.3915 C   0  0  0  0  0  0  0  0  0  0  0  0
 35 36  1  0  0  0
 36 30  1  0  0  0
 30 31  1  0  0  0
 31 32  2  0  0  0
 32 33  1  0  0  0
 33 34  2  0  0  0
 34 29  1  0  0  0
 29  1  1  0  0  0
  1  2  1  0  0  0
  3  2  1  0  0  0
  3  4  1  0  0  0
  4  5  2  0  0  0
  4  6  1  0  0  0
  6 19  1  0  0  0
 19 20  2  0  0  0
 20 21  1  0  0  0
 21 22  2  0  0  0
 22 23  1  0  0  0
 23 24  2  0  0  0
 24 25  1  0  0  0
 25 26  2  0  0  0
 26 27  1  0  0  0
 27 28  2  0  0  0
  6  7  1  0  0  0
  7  8  1  0  0  0
  8  9  1  0  0  0
  3 10  1  0  0  0
 10 11  2  0  0  0
 11 12  1  0  0  0
 12 13  1  0  0  0
 12 14  2  0  0  0
 14 15  1  0  0  0
 15 16  2  0  0  0
 16 17  1  0  0  0
 17 18  2  0  0  0
 34 30  1  0  0  0
 17  1  1  0  0  0
  8  3  1  0  0  0
 16 10  1  0  0  0
 28 19  1  0  0  0
 28 23  1  0  0  0
M  END
> <minimizedAffinity>
-7.49131

> <CNNscore>
0.4159188271

> <CNNaffinity>
6.5732741356

> <CNN_VS>
2.7339484692

> <CNNaffinity_variance>
0.2569573224

$$$$



 36 41  0  0  0  0  0  0  0  0999 V2000
   -7.7055   -1.9988  -23.3458 N   0  0  0  0  0  0  0  0  0  0  0  0
   -7.6848   -0.6217  -23.9398 C   0  0  0  0  0  0  0  0  0  0  0  0
   -8.9635    0.1462  -24.0979 C   0  0  0  0  0  0  0  0  0  0  0  0
  -10.1556    1.0298  -24.3173 C   0  0  0  0  0  0  0  0  0  0  0  0
  -11.3597    1.0261  -24.1541 O   0  0  0  0  0  0  0  0  0  0  0  0
   -9.6760    2.3113  -24.9319 N   0  0  0  0  0  0  0  0  0  0  0  0
   -8.1874    2.2197  -25.0924 C   0  0  0  0  0  0  0  0  0  0  0  0
   -7.7471    0.8817  -24.5770 C   0  0  0  0  0  0  0  0  0  0  0  0
   -6.3378    0.3690  -24.5460 C   0  0  0  0  0  0  0  0  0  0  0  0
  -10.2631   -0.4631  -23.6619 C   0  0  0  0  0  0  0  0  0  0  0  0
  -11.5419    0.3048  -23.8200 C   0  0  0  0  0  0  0  0  0  0  0  0
  -12.8413   -0.3044  -23.3840 C   0  0  0  0  0  0  0  0  0  0  0  0
  -14.1202    0.4634  -23.5421 F   0  0  0  0  0  0  0  0  0  0  0  0
  -12.8620   -1.6816  -22.7899 C   0  0  0  0  0  0  0  0  0  0  0  0
  -11.5832   -2.4495  -22.6318 C   0  0  0  0  0  0  0  0  0  0  0  0
  -10.2838   -1.8402  -23.0678 C   0  0  0  0  0  0  0  0  0  0  0  0
   -9.0049   -2.6081  -22.9098 C   0  0  0  0  0  0  0  0  0  0  0  0
   -9.2821   -3.5661  -22.4612 O   0  0  0  0  0  0  0  0  0  0  0  0
  -10.5343    3.4793  -25.3182 C   0  0  0  0  0  0  0  0  0  0  0  0
  -10.3671    4.1203  -26.6640 C   0  0  0  0  0  0  0  0  0  0  0  0
  -11.2253    5.2882  -27.0503 N   0  0  0  0  0  0  0  0  0  0  0  0
  -12.2508    5.8152  -26.0908 C   0  0  0  0  0  0  0  0  0  0  0  0
  -12.4180    5.1742  -24.7450 C   0  0  0  0  0  0  0  0  0  0  0  0
  -13.4435    5.7013  -23.7855 C   0  0  0  0  0  0  0  0  0  0  0  0
  -13.6106    5.0602  -22.4397 C   0  0  0  0  0  0  0  0  0  0  0  0
  -12.7524    3.8922  -22.0534 C   0  0  0  0  0  0  0  0  0  0  0  0
  -11.7269    3.3653  -23.0129 C   0  0  0  0  0  0  0  0  0  0  0  0
  -11.5597    4.0063  -24.3587 C   0  0  0  0  0  0  0  0  0  0  0  0
   -6.4266   -2.7667  -23.1877 C   0  0  0  0  0  0  0  0  0  0  0  0
   -5.9869   -5.4020  -23.2725 N   0  0  0  0  0  0  0  0  0  0  0  0
   -5.8624   -6.4219  -24.3654 N   0  0  0  0  0  0  0  0  0  0  0  0
   -6.0374   -5.7181  -25.6784 C   0  0  0  0  0  0  0  0  0  0  0  0
   -6.2700   -4.2632  -25.3970 C   0  0  0  0  0  0  0  0  0  0  0  0
   -6.2388   -4.0678  -23.9101 C   0  0  0  0  0  0  0  0  0  0  0  0
   -5.6377   -7.0653  -21.3074 C   0  0  0  0  0  0  0  0  0  0  0  0
   -5.8785   -5.6694  -21.8005 C   0  0  0  0  0  0  0  0  0  0  0  0
 35 36  1  0  0  0
 36 30  1  0  0  0
 30 31  1  0  0  0
 31 32  2  0  0  0
 32 33  1  0  0  0
 33 34  2  0  0  0
 34 29  1  0  0  0
 29  1  1  0  0  0
  1  2  1  0  0  0
  3  2  1  0  0  0
  3  4  1  0  0  0
  4  5  2  0  0  0
  4  6  1  0  0  0
  6 19  1  0  0  0
 19 20  2  0  0  0
 20 21  1  0  0  0
 21 22  2  0  0  0
 22 23  1  0  0  0
 23 24  2  0  0  0
 24 25  1  0  0  0
 25 26  2  0  0  0
 26 27  1  0  0  0
 27 28  2  0  0  0
  6  7  1  0  0  0
  7  8  1  0  0  0
  8  9  1  0  0  0
  3 10  1  0  0  0
 10 11  2  0  0  0
 11 12  1  0  0  0
 12 13  1  0  0  0
 12 14  2  0  0  0
 14 15  1  0  0  0
 15 16  2  0  0  0
 16 17  1  0  0  0
 17 18  2  0  0  0
 34 30  1  0  0  0
 17  1  1  0  0  0
  8  3  1  0  0  0
 16 10  1  0  0  0
 28 19  1  0  0  0
 28 23  1  0  0  0
M  END
> <minimizedAffinity>
-7.76776

> <CNNscore>
0.4093845785

> <CNNaffinity>
6.3517394066

> <CNN_VS>
2.6003041267

> <CNNaffinity_variance>
0.3749248385

$$$$



 36 41  0  0  0  0  0  0  0  0999 V2000
   -7.3398   -0.2233  -22.2091 N   0  0  0  0  0  0  0  0  0  0  0  0
   -7.6486    1.1717  -22.6659 C   0  0  0  0  0  0  0  0  0  0  0  0
   -9.0381    1.5265  -23.1058 C   0  0  0  0  0  0  0  0  0  0  0  0
  -10.3733    2.0263  -23.5719 C   0  0  0  0  0  0  0  0  0  0  0  0
  -11.5082    1.6277  -23.7435 O   0  0  0  0  0  0  0  0  0  0  0  0
  -10.2264    3.4753  -23.9307 N   0  0  0  0  0  0  0  0  0  0  0  0
   -8.8003    3.8710  -23.6864 C   0  0  0  0  0  0  0  0  0  0  0  0
   -8.0659    2.6666  -23.1766 C   0  0  0  0  0  0  0  0  0  0  0  0
   -6.6142    2.6119  -22.8031 C   0  0  0  0  0  0  0  0  0  0  0  0
  -10.1187    0.4862  -23.0890 C   0  0  0  0  0  0  0  0  0  0  0  0
  -11.5081    0.8410  -23.5289 C   0  0  0  0  0  0  0  0  0  0  0  0
  -12.5887   -0.1992  -23.5121 C   0  0  0  0  0  0  0  0  0  0  0  0
  -13.9782    0.1556  -23.9521 F   0  0  0  0  0  0  0  0  0  0  0  0
  -12.2798   -1.5942  -23.0554 C   0  0  0  0  0  0  0  0  0  0  0  0
  -10.8904   -1.9490  -22.6155 C   0  0  0  0  0  0  0  0  0  0  0  0
   -9.8099   -0.9088  -22.6323 C   0  0  0  0  0  0  0  0  0  0  0  0
   -8.4203   -1.2635  -22.1923 C   0  0  0  0  0  0  0  0  0  0  0  0
   -8.4534   -2.3201  -21.9124 O   0  0  0  0  0  0  0  0  0  0  0  0
  -11.3145    4.3712  -24.4438 C   0  0  0  0  0  0  0  0  0  0  0  0
  -12.3007    4.9760  -23.4890 C   0  0  0  0  0  0  0  0  0  0  0  0
  -13.3889    5.8719  -24.0021 N   0  0  0  0  0  0  0  0  0  0  0  0
  -13.4908    6.1631  -25.4700 C   0  0  0  0  0  0  0  0  0  0  0  0
  -12.5046    5.5584  -26.4248 C   0  0  0  0  0  0  0  0  0  0  0  0
  -12.6065    5.8496  -27.8928 C   0  0  0  0  0  0  0  0  0  0  0  0
  -11.6203    5.2448  -28.8476 C   0  0  0  0  0  0  0  0  0  0  0  0
  -10.5321    4.3488  -28.3345 C   0  0  0  0  0  0  0  0  0  0  0  0
  -10.4302    4.0577  -26.8666 C   0  0  0  0  0  0  0  0  0  0  0  0
  -11.4164    4.6624  -25.9117 C   0  0  0  0  0  0  0  0  0  0  0  0
   -5.9503   -0.5781  -21.7692 C   0  0  0  0  0  0  0  0  0  0  0  0
   -5.5527   -1.8781  -19.4676 N   0  0  0  0  0  0  0  0  0  0  0  0
   -5.3365   -3.3118  -19.0829 N   0  0  0  0  0  0  0  0  0  0  0  0
   -5.3641   -4.1370  -20.3352 C   0  0  0  0  0  0  0  0  0  0  0  0
   -5.5974   -3.2134  -21.4939 C   0  0  0  0  0  0  0  0  0  0  0  0
   -5.7139   -1.8174  -20.9578 C   0  0  0  0  0  0  0  0  0  0  0  0
   -4.6543    0.4396  -18.7120 C   0  0  0  0  0  0  0  0  0  0  0  0
   -5.5995   -0.7103  -18.5273 C   0  0  0  0  0  0  0  0  0  0  0  0
 35 36  1  0  0  0
 36 30  1  0  0  0
 30 31  1  0  0  0
 31 32  2  0  0  0
 32 33  1  0  0  0
 33 34  2  0  0  0
 34 29  1  0  0  0
 29  1  1  0  0  0
  1  2  1  0  0  0
  3  2  1  0  0  0
  3  4  1  0  0  0
  4  5  2  0  0  0
  4  6  1  0  0  0
  6 19  1  0  0  0
 19 20  2  0  0  0
 20 21  1  0  0  0
 21 22  2  0  0  0
 22 23  1  0  0  0
 23 24  2  0  0  0
 24 25  1  0  0  0
 25 26  2  0  0  0
 26 27  1  0  0  0
 27 28  2  0  0  0
  6  7  1  0  0  0
  7  8  1  0  0  0
  8  9  1  0  0  0
  3 10  1  0  0  0
 10 11  2  0  0  0
 11 12  1  0  0  0
 12 13  1  0  0  0
 12 14  2  0  0  0
 14 15  1  0  0  0
 15 16  2  0  0  0
 16 17  1  0  0  0
 17 18  2  0  0  0
 34 30  1  0  0  0
 17  1  1  0  0  0
  8  3  1  0  0  0
 16 10  1  0  0  0
 28 19  1  0  0  0
 28 23  1  0  0  0
M  END
> <minimizedAffinity>
-8.49833

> <CNNscore>
0.3226094246

> <CNNaffinity>
6.2968864441

> <CNN_VS>
2.0314350128

> <CNNaffinity_variance>
0.1185631156

$$$$



 36 41  0  0  0  0  0  0  0  0999 V2000
   -9.3260   -2.6430  -23.7269 N   0  0  0  0  0  0  0  0  0  0  0  0
   -8.5253   -1.4042  -23.9998 C   0  0  0  0  0  0  0  0  0  0  0  0
   -9.1987   -0.0640  -24.0143 C   0  0  0  0  0  0  0  0  0  0  0  0
   -9.7311    1.3376  -24.0608 C   0  0  0  0  0  0  0  0  0  0  0  0
  -10.7782    1.9403  -23.9316 O   0  0  0  0  0  0  0  0  0  0  0  0
   -8.5865    2.2585  -24.3638 N   0  0  0  0  0  0  0  0  0  0  0  0
   -7.3466    1.4260  -24.5046 C   0  0  0  0  0  0  0  0  0  0  0  0
   -7.7250   -0.0093  -24.2886 C   0  0  0  0  0  0  0  0  0  0  0  0
   -6.7932   -1.1838  -24.3381 C   0  0  0  0  0  0  0  0  0  0  0  0
  -10.6728    0.0376  -23.7559 C   0  0  0  0  0  0  0  0  0  0  0  0
  -11.3462    1.3778  -23.7704 C   0  0  0  0  0  0  0  0  0  0  0  0
  -12.8203    1.4793  -23.5121 C   0  0  0  0  0  0  0  0  0  0  0  0
  -13.4937    2.8196  -23.5266 F   0  0  0  0  0  0  0  0  0  0  0  0
  -13.6210    0.2406  -23.2392 C   0  0  0  0  0  0  0  0  0  0  0  0
  -12.9476   -1.0996  -23.2247 C   0  0  0  0  0  0  0  0  0  0  0  0
  -11.4735   -1.2012  -23.4830 C   0  0  0  0  0  0  0  0  0  0  0  0
  -10.8001   -2.5415  -23.4685 C   0  0  0  0  0  0  0  0  0  0  0  0
  -11.5851   -3.2708  -23.2507 O   0  0  0  0  0  0  0  0  0  0  0  0
   -8.6675    3.7499  -24.5018 C   0  0  0  0  0  0  0  0  0  0  0  0
   -8.2607    4.6321  -23.3588 C   0  0  0  0  0  0  0  0  0  0  0  0
   -8.3417    6.1235  -23.4968 N   0  0  0  0  0  0  0  0  0  0  0  0
   -8.8296    6.7328  -24.7778 C   0  0  0  0  0  0  0  0  0  0  0  0
   -9.2364    5.8506  -25.9207 C   0  0  0  0  0  0  0  0  0  0  0  0
   -9.7243    6.4599  -27.2017 C   0  0  0  0  0  0  0  0  0  0  0  0
  -10.1311    5.5776  -28.3446 C   0  0  0  0  0  0  0  0  0  0  0  0
  -10.0500    4.0862  -28.2066 C   0  0  0  0  0  0  0  0  0  0  0  0
   -9.5622    3.4769  -26.9256 C   0  0  0  0  0  0  0  0  0  0  0  0
   -9.1554    4.3591  -25.7827 C   0  0  0  0  0  0  0  0  0  0  0  0
   -8.6525   -3.9833  -23.7124 C   0  0  0  0  0  0  0  0  0  0  0  0
   -8.1272   -6.2241  -25.0717 N   0  0  0  0  0  0  0  0  0  0  0  0
   -8.6900   -6.8764  -26.2997 N   0  0  0  0  0  0  0  0  0  0  0  0
   -9.7957   -6.0071  -26.8209 C   0  0  0  0  0  0  0  0  0  0  0  0
   -9.9162   -4.8175  -25.9152 C   0  0  0  0  0  0  0  0  0  0  0  0
   -8.8851   -4.9516  -24.8341 C   0  0  0  0  0  0  0  0  0  0  0  0
   -7.2560   -7.1461  -22.8043 C   0  0  0  0  0  0  0  0  0  0  0  0
   -7.0038   -6.7517  -24.2293 C   0  0  0  0  0  0  0  0  0  0  0  0
 35 36  1  0  0  0
 36 30  1  0  0  0
 30 31  1  0  0  0
 31 32  2  0  0  0
 32 33  1  0  0  0
 33 34  2  0  0  0
 34 29  1  0  0  0
 29  1  1  0  0  0
  1  2  1  0  0  0
  3  2  1  0  0  0
  3  4  1  0  0  0
  4  5  2  0  0  0
  4  6  1  0  0  0
  6 19  1  0  0  0
 19 20  2  0  0  0
 20 21  1  0  0  0
 21 22  2  0  0  0
 22 23  1  0  0  0
 23 24  2  0  0  0
 24 25  1  0  0  0
 25 26  2  0  0  0
 26 27  1  0  0  0
 27 28  2  0  0  0
  6  7  1  0  0  0
  7  8  1  0  0  0
  8  9  1  0  0  0
  3 10  1  0  0  0
 10 11  2  0  0  0
 11 12  1  0  0  0
 12 13  1  0  0  0
 12 14  2  0  0  0
 14 15  1  0  0  0
 15 16  2  0  0  0
 16 17  1  0  0  0
 17 18  2  0  0  0
 34 30  1  0  0  0
 17  1  1  0  0  0
  8  3  1  0  0  0
 16 10  1  0  0  0
 28 19  1  0  0  0
 28 23  1  0  0  0
M  END
> <minimizedAffinity>
-7.68351

> <CNNscore>
0.2494525760

> <CNNaffinity>
6.0859956741

> <CNN_VS>
1.5181672573

> <CNNaffinity_variance>
0.4169827104

$$$$



 36 41  0  0  0  0  0  0  0  0999 V2000
   -8.8047    2.4243  -24.6933 N   0  0  0  0  0  0  0  0  0  0  0  0
   -7.9625    1.1878  -24.8026 C   0  0  0  0  0  0  0  0  0  0  0  0
   -8.5449   -0.1496  -24.4530 C   0  0  0  0  0  0  0  0  0  0  0  0
   -8.9873   -1.5482  -24.1397 C   0  0  0  0  0  0  0  0  0  0  0  0
   -9.9712   -2.1494  -23.7564 O   0  0  0  0  0  0  0  0  0  0  0  0
   -7.8283   -2.4675  -24.3879 N   0  0  0  0  0  0  0  0  0  0  0  0
   -6.6696   -1.6371  -24.8546 C   0  0  0  0  0  0  0  0  0  0  0  0
   -7.1125   -0.2046  -24.8949 C   0  0  0  0  0  0  0  0  0  0  0  0
   -6.2707    0.9673  -25.3050 C   0  0  0  0  0  0  0  0  0  0  0  0
   -9.9695   -0.2505  -23.9942 C   0  0  0  0  0  0  0  0  0  0  0  0
  -10.5519   -1.5879  -23.6447 C   0  0  0  0  0  0  0  0  0  0  0  0
  -11.9764   -1.6888  -23.1859 C   0  0  0  0  0  0  0  0  0  0  0  0
  -12.5588   -3.0262  -22.8363 F   0  0  0  0  0  0  0  0  0  0  0  0
  -12.8185   -0.4523  -23.0766 C   0  0  0  0  0  0  0  0  0  0  0  0
  -12.2361    0.8850  -23.4261 C   0  0  0  0  0  0  0  0  0  0  0  0
  -10.8116    0.9860  -23.8849 C   0  0  0  0  0  0  0  0  0  0  0  0
  -10.2292    2.3234  -24.2345 C   0  0  0  0  0  0  0  0  0  0  0  0
  -11.0292    3.0515  -24.0748 O   0  0  0  0  0  0  0  0  0  0  0  0
   -7.8281   -3.9560  -24.2020 C   0  0  0  0  0  0  0  0  0  0  0  0
   -7.2611   -4.5553  -22.9492 C   0  0  0  0  0  0  0  0  0  0  0  0
   -7.2609   -6.0437  -22.7633 N   0  0  0  0  0  0  0  0  0  0  0  0
   -7.8277   -6.9328  -23.8301 C   0  0  0  0  0  0  0  0  0  0  0  0
   -8.3948   -6.3335  -25.0829 C   0  0  0  0  0  0  0  0  0  0  0  0
   -8.9616   -7.2227  -26.1498 C   0  0  0  0  0  0  0  0  0  0  0  0
   -9.5286   -6.6233  -27.4025 C   0  0  0  0  0  0  0  0  0  0  0  0
   -9.5288   -5.1349  -27.5884 C   0  0  0  0  0  0  0  0  0  0  0  0
   -8.9620   -4.2458  -26.5215 C   0  0  0  0  0  0  0  0  0  0  0  0
   -8.3950   -4.8451  -25.2688 C   0  0  0  0  0  0  0  0  0  0  0  0
   -8.2222    3.7617  -25.0428 C   0  0  0  0  0  0  0  0  0  0  0  0
   -7.1260    4.3222  -22.6702 N   0  0  0  0  0  0  0  0  0  0  0  0
   -6.8886    5.5757  -21.8811 N   0  0  0  0  0  0  0  0  0  0  0  0
   -7.4166    6.7319  -22.6775 C   0  0  0  0  0  0  0  0  0  0  0  0
   -7.9805    6.1931  -23.9588 C   0  0  0  0  0  0  0  0  0  0  0  0
   -7.8009    4.7039  -23.9543 C   0  0  0  0  0  0  0  0  0  0  0  0
   -5.3511    2.6301  -21.8121 C   0  0  0  0  0  0  0  0  0  0  0  0
   -6.7540    2.9315  -22.2491 C   0  0  0  0  0  0  0  0  0  0  0  0
 35 36  1  0  0  0
 36 30  1  0  0  0
 30 31  1  0  0  0
 31 32  2  0  0  0
 32 33  1  0  0  0
 33 34  2  0  0  0
 34 29  1  0  0  0
 29  1  1  0  0  0
  1  2  1  0  0  0
  3  2  1  0  0  0
  3  4  1  0  0  0
  4  5  2  0  0  0
  4  6  1  0  0  0
  6 19  1  0  0  0
 19 20  2  0  0  0
 20 21  1  0  0  0
 21 22  2  0  0  0
 22 23  1  0  0  0
 23 24  2  0  0  0
 24 25  1  0  0  0
 25 26  2  0  0  0
 26 27  1  0  0  0
 27 28  2  0  0  0
  6  7  1  0  0  0
  7  8  1  0  0  0
  8  9  1  0  0  0
  3 10  1  0  0  0
 10 11  2  0  0  0
 11 12  1  0  0  0
 12 13  1  0  0  0
 12 14  2  0  0  0
 14 15  1  0  0  0
 15 16  2  0  0  0
 16 17  1  0  0  0
 17 18  2  0  0  0
 34 30  1  0  0  0
 17  1  1  0  0  0
  8  3  1  0  0  0
 16 10  1  0  0  0
 28 19  1  0  0  0
 28 23  1  0  0  0
M  END
> <minimizedAffinity>
-7.67643

> <CNNscore>
0.2461589873

> <CNNaffinity>
6.3077936172

> <CNN_VS>
1.5527200699

> <CNNaffinity_variance>
0.1644782424

$$$$
