


 36 41  0  0  0  0  0  0  0  0999 V2000
    7.1936   -3.3511   23.7012 N   0  0  0  0  0  0  0  0  0  0  0  0
    7.3456   -1.9619   23.1563 C   0  0  0  0  0  0  0  0  0  0  0  0
    8.5928   -1.1779   23.4383 C   0  0  0  0  0  0  0  0  0  0  0  0
    9.7764   -0.2778   23.6359 C   0  0  0  0  0  0  0  0  0  0  0  0
   10.8608   -0.2729   24.1841 O   0  0  0  0  0  0  0  0  0  0  0  0
    9.5030    1.0115   22.9198 N   0  0  0  0  0  0  0  0  0  0  0  0
    8.1505    0.9083   22.2795 C   0  0  0  0  0  0  0  0  0  0  0  0
    7.5880   -0.4448   22.5999 C   0  0  0  0  0  0  0  0  0  0  0  0
    6.2547   -0.9722   22.1594 C   0  0  0  0  0  0  0  0  0  0  0  0
    9.6882   -1.7831   24.2653 C   0  0  0  0  0  0  0  0  0  0  0  0
   10.9355   -0.9992   24.5473 C   0  0  0  0  0  0  0  0  0  0  0  0
   12.0308   -1.6044   25.3743 C   0  0  0  0  0  0  0  0  0  0  0  0
   13.2782   -0.8204   25.6563 F   0  0  0  0  0  0  0  0  0  0  0  0
   11.8789   -2.9936   25.9193 C   0  0  0  0  0  0  0  0  0  0  0  0
   10.6316   -3.7776   25.6373 C   0  0  0  0  0  0  0  0  0  0  0  0
    9.5363   -3.1723   24.8103 C   0  0  0  0  0  0  0  0  0  0  0  0
    8.2889   -3.9563   24.5282 C   0  0  0  0  0  0  0  0  0  0  0  0
    8.4199   -4.9208   25.0267 O   0  0  0  0  0  0  0  0  0  0  0  0
   10.4210    2.1960   22.8553 C   0  0  0  0  0  0  0  0  0  0  0  0
   11.8912    1.9945   22.6363 C   0  0  0  0  0  0  0  0  0  0  0  0
   12.8092    3.1790   22.5718 N   0  0  0  0  0  0  0  0  0  0  0  0
   12.2570    4.5651   22.7262 C   0  0  0  0  0  0  0  0  0  0  0  0
   10.7868    4.7666   22.9451 C   0  0  0  0  0  0  0  0  0  0  0  0
   10.2345    6.1528   23.0995 C   0  0  0  0  0  0  0  0  0  0  0  0
    8.7643    6.3542   23.3185 C   0  0  0  0  0  0  0  0  0  0  0  0
    7.8463    5.1697   23.3830 C   0  0  0  0  0  0  0  0  0  0  0  0
    8.3986    3.7836   23.2286 C   0  0  0  0  0  0  0  0  0  0  0  0
    9.8688    3.5821   23.0097 C   0  0  0  0  0  0  0  0  0  0  0  0
    5.9462   -4.1351   23.4192 C   0  0  0  0  0  0  0  0  0  0  0  0
    5.8385   -6.6602   24.2894 N   0  0  0  0  0  0  0  0  0  0  0  0
    5.1826   -7.3569   25.4447 N   0  0  0  0  0  0  0  0  0  0  0  0
    4.4374   -6.3289   26.2434 C   0  0  0  0  0  0  0  0  0  0  0  0
    4.6328   -4.9969   25.5819 C   0  0  0  0  0  0  0  0  0  0  0  0
    5.4987   -5.2016   24.3743 C   0  0  0  0  0  0  0  0  0  0  0  0
    6.7994   -6.6837   21.8757 C   0  0  0  0  0  0  0  0  0  0  0  0
    6.6855   -7.3083   23.2346 C   0  0  0  0  0  0  0  0  0  0  0  0
 35 36  1  0  0  0
 36 30  1  0  0  0
 30 31  1  0  0  0
 31 32  2  0  0  0
 32 33  1  0  0  0
 33 34  2  0  0  0
 34 29  1  0  0  0
 29  1  1  0  0  0
  1  2  1  0  0  0
  3  2  1  0  0  0
  3  4  1  0  0  0
  4  5  2  0  0  0
  4  6  1  0  0  0
  6 19  1  0  0  0
 19 20  2  0  0  0
 20 21  1  0  0  0
 21 22  2  0  0  0
 22 23  1  0  0  0
 23 24  2  0  0  0
 24 25  1  0  0  0
 25 26  2  0  0  0
 26 27  1  0  0  0
 27 28  2  0  0  0
  6  7  1  0  0  0
  7  8  1  0  0  0
  8  9  1  0  0  0
  3 10  1  0  0  0
 10 11  2  0  0  0
 11 12  1  0  0  0
 12 13  1  0  0  0
 12 14  2  0  0  0
 14 15  1  0  0  0
 15 16  2  0  0  0
 16 17  1  0  0  0
 17 18  2  0  0  0
 34 30  1  0  0  0
 17  1  1  0  0  0
  8  3  1  0  0  0
 16 10  1  0  0  0
 28 19  1  0  0  0
 28 23  1  0  0  0
M  END
> <minimizedAffinity>
-8.35610

> <CNNscore>
0.4401232004

> <CNNaffinity>
6.8054399490

> <CNN_VS>
2.9952321053

> <CNNaffinity_variance>
0.1422139108

$$$$



 36 41  0  0  0  0  0  0  0  0999 V2000
   10.2830    0.3697   23.0147 N   0  0  0  0  0  0  0  0  0  0  0  0
    9.0891   -0.5190   22.8289 C   0  0  0  0  0  0  0  0  0  0  0  0
    8.9874   -1.8074   23.5903 C   0  0  0  0  0  0  0  0  0  0  0  0
    8.7483   -3.1182   24.2792 C   0  0  0  0  0  0  0  0  0  0  0  0
    9.2779   -3.8555   25.0868 O   0  0  0  0  0  0  0  0  0  0  0  0
    7.4360   -3.6624   23.7977 N   0  0  0  0  0  0  0  0  0  0  0  0
    6.8641   -2.6878   22.8112 C   0  0  0  0  0  0  0  0  0  0  0  0
    7.8229   -1.5414   22.6831 C   0  0  0  0  0  0  0  0  0  0  0  0
    7.6478   -0.3399   21.8023 C   0  0  0  0  0  0  0  0  0  0  0  0
   10.0797   -2.2070   24.5376 C   0  0  0  0  0  0  0  0  0  0  0  0
    9.9781   -3.4954   25.2990 C   0  0  0  0  0  0  0  0  0  0  0  0
   11.0704   -3.8949   26.2461 C   0  0  0  0  0  0  0  0  0  0  0  0
   10.9687   -5.1834   27.0076 F   0  0  0  0  0  0  0  0  0  0  0  0
   12.2643   -3.0062   26.4319 C   0  0  0  0  0  0  0  0  0  0  0  0
   12.3660   -1.7178   25.6705 C   0  0  0  0  0  0  0  0  0  0  0  0
   11.2737   -1.3182   24.7233 C   0  0  0  0  0  0  0  0  0  0  0  0
   11.3753   -0.0298   23.9619 C   0  0  0  0  0  0  0  0  0  0  0  0
   12.3208    0.4269   24.2673 O   0  0  0  0  0  0  0  0  0  0  0  0
    6.8063   -4.9542   24.2272 C   0  0  0  0  0  0  0  0  0  0  0  0
    7.3324   -6.2566   23.7009 C   0  0  0  0  0  0  0  0  0  0  0  0
    6.7027   -7.5485   24.1304 N   0  0  0  0  0  0  0  0  0  0  0  0
    5.5469   -7.5380   25.0864 C   0  0  0  0  0  0  0  0  0  0  0  0
    5.0207   -6.2356   25.6127 C   0  0  0  0  0  0  0  0  0  0  0  0
    3.8648   -6.2251   26.5688 C   0  0  0  0  0  0  0  0  0  0  0  0
    3.3387   -4.9227   27.0951 C   0  0  0  0  0  0  0  0  0  0  0  0
    3.9685   -3.6309   26.6655 C   0  0  0  0  0  0  0  0  0  0  0  0
    5.1243   -3.6414   25.7096 C   0  0  0  0  0  0  0  0  0  0  0  0
    5.6504   -4.9437   25.1832 C   0  0  0  0  0  0  0  0  0  0  0  0
   10.3847    1.6581   22.2532 C   0  0  0  0  0  0  0  0  0  0  0  0
   10.0522    4.2126   22.9670 N   0  0  0  0  0  0  0  0  0  0  0  0
    8.8735    5.0702   23.3210 N   0  0  0  0  0  0  0  0  0  0  0  0
    7.6392    4.2228   23.2282 C   0  0  0  0  0  0  0  0  0  0  0  0
    8.0551    2.8416   22.8170 C   0  0  0  0  0  0  0  0  0  0  0  0
    9.5464    2.8352   22.6555 C   0  0  0  0  0  0  0  0  0  0  0  0
   12.3298    4.3638   21.7261 C   0  0  0  0  0  0  0  0  0  0  0  0
   11.4851    4.6548   22.9310 C   0  0  0  0  0  0  0  0  0  0  0  0
 35 36  1  0  0  0
 36 30  1  0  0  0
 30 31  1  0  0  0
 31 32  2  0  0  0
 32 33  1  0  0  0
 33 34  2  0  0  0
 34 29  1  0  0  0
 29  1  1  0  0  0
  1  2  1  0  0  0
  3  2  1  0  0  0
  3  4  1  0  0  0
  4  5  2  0  0  0
  4  6  1  0  0  0
  6 19  1  0  0  0
 19 20  2  0  0  0
 20 21  1  0  0  0
 21 22  2  0  0  0
 22 23  1  0  0  0
 23 24  2  0  0  0
 24 25  1  0  0  0
 25 26  2  0  0  0
 26 27  1  0  0  0
 27 28  2  0  0  0
  6  7  1  0  0  0
  7  8  1  0  0  0
  8  9  1  0  0  0
  3 10  1  0  0  0
 10 11  2  0  0  0
 11 12  1  0  0  0
 12 13  1  0  0  0
 12 14  2  0  0  0
 14 15  1  0  0  0
 15 16  2  0  0  0
 16 17  1  0  0  0
 17 18  2  0  0  0
 34 30  1  0  0  0
 17  1  1  0  0  0
  8  3  1  0  0  0
 16 10  1  0  0  0
 28 19  1  0  0  0
 28 23  1  0  0  0
M  END
> <minimizedAffinity>
-8.87110

> <CNNscore>
0.2983919382

> <CNNaffinity>
6.6473150253

> <CNN_VS>
1.9835052490

> <CNNaffinity_variance>
0.2816481590

$$$$



 36 41  0  0  0  0  0  0  0  0999 V2000
    9.8263    0.1096   23.2099 N   0  0  0  0  0  0  0  0  0  0  0  0
    8.4632   -0.2895   23.6921 C   0  0  0  0  0  0  0  0  0  0  0  0
    8.3200   -1.3529   24.7402 C   0  0  0  0  0  0  0  0  0  0  0  0
    8.0218   -2.3945   25.7776 C   0  0  0  0  0  0  0  0  0  0  0  0
    8.6011   -3.1781   26.5033 O   0  0  0  0  0  0  0  0  0  0  0  0
    6.5332   -2.4658   25.9483 N   0  0  0  0  0  0  0  0  0  0  0  0
    5.9115   -1.4682   25.0165 C   0  0  0  0  0  0  0  0  0  0  0  0
    7.0158   -0.7805   24.2699 C   0  0  0  0  0  0  0  0  0  0  0  0
    6.8457    0.2916   23.2346 C   0  0  0  0  0  0  0  0  0  0  0  0
    9.5401   -2.0174   25.3061 C   0  0  0  0  0  0  0  0  0  0  0  0
    9.3969   -3.0808   26.3542 C   0  0  0  0  0  0  0  0  0  0  0  0
   10.6169   -3.7452   26.9201 C   0  0  0  0  0  0  0  0  0  0  0  0
   10.4738   -4.8087   27.9682 F   0  0  0  0  0  0  0  0  0  0  0  0
   11.9800   -3.3461   26.4378 C   0  0  0  0  0  0  0  0  0  0  0  0
   12.1232   -2.2827   25.3897 C   0  0  0  0  0  0  0  0  0  0  0  0
   10.9032   -1.6183   24.8238 C   0  0  0  0  0  0  0  0  0  0  0  0
   11.0463   -0.5548   23.7757 C   0  0  0  0  0  0  0  0  0  0  0  0
   12.1202   -0.4485   23.5989 O   0  0  0  0  0  0  0  0  0  0  0  0
    5.7959   -3.3750   26.8862 C   0  0  0  0  0  0  0  0  0  0  0  0
    5.6138   -2.9831   28.3226 C   0  0  0  0  0  0  0  0  0  0  0  0
    4.8765   -3.8923   29.2605 N   0  0  0  0  0  0  0  0  0  0  0  0
    4.3212   -5.1935   28.7620 C   0  0  0  0  0  0  0  0  0  0  0  0
    4.5033   -5.5854   27.3256 C   0  0  0  0  0  0  0  0  0  0  0  0
    3.9479   -6.8867   26.8271 C   0  0  0  0  0  0  0  0  0  0  0  0
    4.1300   -7.2786   25.3907 C   0  0  0  0  0  0  0  0  0  0  0  0
    4.8674   -6.3694   24.4528 C   0  0  0  0  0  0  0  0  0  0  0  0
    5.4226   -5.0682   24.9513 C   0  0  0  0  0  0  0  0  0  0  0  0
    5.2406   -4.6762   26.3877 C   0  0  0  0  0  0  0  0  0  0  0  0
    9.9695    1.1731   22.1617 C   0  0  0  0  0  0  0  0  0  0  0  0
    9.7215    3.7099   22.9670 N   0  0  0  0  0  0  0  0  0  0  0  0
   10.6755    4.8367   23.2315 N   0  0  0  0  0  0  0  0  0  0  0  0
   12.0648    4.3421   22.9571 C   0  0  0  0  0  0  0  0  0  0  0  0
   11.9693    2.9095   22.5229 C   0  0  0  0  0  0  0  0  0  0  0  0
   10.5212    2.5187   22.5290 C   0  0  0  0  0  0  0  0  0  0  0  0
    7.5765    4.9898   23.6818 C   0  0  0  0  0  0  0  0  0  0  0  0
    8.2297    3.7645   23.1146 C   0  0  0  0  0  0  0  0  0  0  0  0
 35 36  1  0  0  0
 36 30  1  0  0  0
 30 31  1  0  0  0
 31 32  2  0  0  0
 32 33  1  0  0  0
 33 34  2  0  0  0
 34 29  1  0  0  0
 29  1  1  0  0  0
  1  2  1  0  0  0
  3  2  1  0  0  0
  3  4  1  0  0  0
  4  5  2  0  0  0
  4  6  1  0  0  0
  6 19  1  0  0  0
 19 20  2  0  0  0
 20 21  1  0  0  0
 21 22  2  0  0  0
 22 23  1  0  0  0
 23 24  2  0  0  0
 24 25  1  0  0  0
 25 26  2  0  0  0
 26 27  1  0  0  0
 27 28  2  0  0  0
  6  7  1  0  0  0
  7  8  1  0  0  0
  8  9  1  0  0  0
  3 10  1  0  0  0
 10 11  2  0  0  0
 11 12  1  0  0  0
 12 13  1  0  0  0
 12 14  2  0  0  0
 14 15  1  0  0  0
 15 16  2  0  0  0
 16 17  1  0  0  0
 17 18  2  0  0  0
 34 30  1  0  0  0
 17  1  1  0  0  0
  8  3  1  0  0  0
 16 10  1  0  0  0
 28 19  1  0  0  0
 28 23  1  0  0  0
M  END
> <minimizedAffinity>
-7.53981

> <CNNscore>
0.2802669108

> <CNNaffinity>
6.5499968529

> <CNN_VS>
1.8357473612

> <CNNaffinity_variance>
0.1986808628

$$$$



 36 41  0  0  0  0  0  0  0  0999 V2000
    9.0717   -1.8050   24.3492 N   0  0  0  0  0  0  0  0  0  0  0  0
    8.7015   -0.6686   23.4429 C   0  0  0  0  0  0  0  0  0  0  0  0
    7.4829    0.1563   23.7337 C   0  0  0  0  0  0  0  0  0  0  0  0
    6.2999    1.0640   23.8960 C   0  0  0  0  0  0  0  0  0  0  0  0
    5.3564    1.2393   24.6414 O   0  0  0  0  0  0  0  0  0  0  0  0
    6.3165    2.0533   22.7686 N   0  0  0  0  0  0  0  0  0  0  0  0
    7.5099    1.7570   21.9095 C   0  0  0  0  0  0  0  0  0  0  0  0
    8.2307    0.5846   22.5060 C   0  0  0  0  0  0  0  0  0  0  0  0
    9.4801   -0.0484   21.9690 C   0  0  0  0  0  0  0  0  0  0  0  0
    6.6345   -0.1553   24.9309 C   0  0  0  0  0  0  0  0  0  0  0  0
    5.4159    0.6695   25.2218 C   0  0  0  0  0  0  0  0  0  0  0  0
    4.5676    0.3579   26.4189 C   0  0  0  0  0  0  0  0  0  0  0  0
    3.3489    1.1828   26.7098 F   0  0  0  0  0  0  0  0  0  0  0  0
    4.9378   -0.7785   27.3252 C   0  0  0  0  0  0  0  0  0  0  0  0
    6.1564   -1.6034   27.0343 C   0  0  0  0  0  0  0  0  0  0  0  0
    7.0047   -1.2918   25.8372 C   0  0  0  0  0  0  0  0  0  0  0  0
    8.2234   -2.1167   25.5463 C   0  0  0  0  0  0  0  0  0  0  0  0
    8.2748   -2.8682   26.3389 O   0  0  0  0  0  0  0  0  0  0  0  0
    5.3155    3.1469   22.5404 C   0  0  0  0  0  0  0  0  0  0  0  0
    5.2982    4.3474   23.4396 C   0  0  0  0  0  0  0  0  0  0  0  0
    4.2972    5.4410   23.2114 N   0  0  0  0  0  0  0  0  0  0  0  0
    3.3135    5.3341   22.0840 C   0  0  0  0  0  0  0  0  0  0  0  0
    3.3309    4.1336   21.1848 C   0  0  0  0  0  0  0  0  0  0  0  0
    2.3472    4.0266   20.0574 C   0  0  0  0  0  0  0  0  0  0  0  0
    2.3646    2.8261   19.1583 C   0  0  0  0  0  0  0  0  0  0  0  0
    3.3656    1.7325   19.3865 C   0  0  0  0  0  0  0  0  0  0  0  0
    4.3492    1.8394   20.5139 C   0  0  0  0  0  0  0  0  0  0  0  0
    4.3319    3.0400   21.4130 C   0  0  0  0  0  0  0  0  0  0  0  0
   10.2904   -2.6299   24.0583 C   0  0  0  0  0  0  0  0  0  0  0  0
   12.6113   -1.4534   24.6703 N   0  0  0  0  0  0  0  0  0  0  0  0
   13.6482   -1.6441   25.7373 N   0  0  0  0  0  0  0  0  0  0  0  0
   13.2031   -2.7724   26.6198 C   0  0  0  0  0  0  0  0  0  0  0  0
   11.8911   -3.2790   26.0983 C   0  0  0  0  0  0  0  0  0  0  0  0
   11.5253   -2.4638   24.8934 C   0  0  0  0  0  0  0  0  0  0  0  0
   13.0071   -0.8459   22.1754 C   0  0  0  0  0  0  0  0  0  0  0  0
   12.6530   -0.4316   23.5728 C   0  0  0  0  0  0  0  0  0  0  0  0
 35 36  1  0  0  0
 36 30  1  0  0  0
 30 31  1  0  0  0
 31 32  2  0  0  0
 32 33  1  0  0  0
 33 34  2  0  0  0
 34 29  1  0  0  0
 29  1  1  0  0  0
  1  2  1  0  0  0
  3  2  1  0  0  0
  3  4  1  0  0  0
  4  5  2  0  0  0
  4  6  1  0  0  0
  6 19  1  0  0  0
 19 20  2  0  0  0
 20 21  1  0  0  0
 21 22  2  0  0  0
 22 23  1  0  0  0
 23 24  2  0  0  0
 24 25  1  0  0  0
 25 26  2  0  0  0
 26 27  1  0  0  0
 27 28  2  0  0  0
  6  7  1  0  0  0
  7  8  1  0  0  0
  8  9  1  0  0  0
  3 10  1  0  0  0
 10 11  2  0  0  0
 11 12  1  0  0  0
 12 13  1  0  0  0
 12 14  2  0  0  0
 14 15  1  0  0  0
 15 16  2  0  0  0
 16 17  1  0  0  0
 17 18  2  0  0  0
 34 30  1  0  0  0
 17  1  1  0  0  0
  8  3  1  0  0  0
 16 10  1  0  0  0
 28 19  1  0  0  0
 28 23  1  0  0  0
M  END
> <minimizedAffinity>
-7.89954

> <CNNscore>
0.2449703962

> <CNNaffinity>
6.5115914345

> <CNN_VS>
1.5951471329

> <CNNaffinity_variance>
0.0284047481

$$$$



 36 41  0  0  0  0  0  0  0  0999 V2000
    5.7212    2.9256   22.2710 N   0  0  0  0  0  0  0  0  0  0  0  0
    6.5770    1.6940   22.2959 C   0  0  0  0  0  0  0  0  0  0  0  0
    6.9990    1.1004   23.6072 C   0  0  0  0  0  0  0  0  0  0  0  0
    7.4966    0.3972   24.8352 C   0  0  0  0  0  0  0  0  0  0  0  0
    7.4429    0.4875   26.0457 O   0  0  0  0  0  0  0  0  0  0  0  0
    8.3126   -0.7821   24.3955 N   0  0  0  0  0  0  0  0  0  0  0  0
    8.3194   -0.8078   22.8957 C   0  0  0  0  0  0  0  0  0  0  0  0
    7.5075    0.3556   22.4085 C   0  0  0  0  0  0  0  0  0  0  0  0
    7.2495    0.7118   20.9745 C   0  0  0  0  0  0  0  0  0  0  0  0
    6.5653    1.7385   24.8936 C   0  0  0  0  0  0  0  0  0  0  0  0
    6.9874    1.1449   26.2049 C   0  0  0  0  0  0  0  0  0  0  0  0
    6.5536    1.7830   27.4912 C   0  0  0  0  0  0  0  0  0  0  0  0
    6.9757    1.1894   28.8026 F   0  0  0  0  0  0  0  0  0  0  0  0
    5.6979    3.0147   27.4663 C   0  0  0  0  0  0  0  0  0  0  0  0
    5.2758    3.6082   26.1550 C   0  0  0  0  0  0  0  0  0  0  0  0
    5.7095    2.9701   24.8687 C   0  0  0  0  0  0  0  0  0  0  0  0
    5.2875    3.5637   23.5573 C   0  0  0  0  0  0  0  0  0  0  0  0
    4.6809    4.4395   23.8042 O   0  0  0  0  0  0  0  0  0  0  0  0
    9.0010   -1.7634   25.2972 C   0  0  0  0  0  0  0  0  0  0  0  0
    8.1911   -2.7048   26.1387 C   0  0  0  0  0  0  0  0  0  0  0  0
    8.8795   -3.6861   27.0404 N   0  0  0  0  0  0  0  0  0  0  0  0
   10.3777   -3.7261   27.1007 C   0  0  0  0  0  0  0  0  0  0  0  0
   11.1876   -2.7847   26.2592 C   0  0  0  0  0  0  0  0  0  0  0  0
   12.6859   -2.8248   26.3195 C   0  0  0  0  0  0  0  0  0  0  0  0
   13.4957   -1.8834   25.4780 C   0  0  0  0  0  0  0  0  0  0  0  0
   12.8073   -0.9021   24.5762 C   0  0  0  0  0  0  0  0  0  0  0  0
   11.3091   -0.8621   24.5160 C   0  0  0  0  0  0  0  0  0  0  0  0
   10.4992   -1.8034   25.3575 C   0  0  0  0  0  0  0  0  0  0  0  0
    5.2991    3.5192   20.9596 C   0  0  0  0  0  0  0  0  0  0  0  0
    3.5177    2.1049   19.5555 N   0  0  0  0  0  0  0  0  0  0  0  0
    2.0527    2.2373   19.2615 N   0  0  0  0  0  0  0  0  0  0  0  0
    1.5514    3.4716   19.9508 C   0  0  0  0  0  0  0  0  0  0  0  0
    2.7064    4.1020   20.6708 C   0  0  0  0  0  0  0  0  0  0  0  0
    3.9217    3.2574   20.4265 C   0  0  0  0  0  0  0  0  0  0  0  0
    4.8390    0.9750   17.6249 C   0  0  0  0  0  0  0  0  0  0  0  0
    4.4202    1.0119   19.0646 C   0  0  0  0  0  0  0  0  0  0  0  0
 35 36  1  0  0  0
 36 30  1  0  0  0
 30 31  1  0  0  0
 31 32  2  0  0  0
 32 33  1  0  0  0
 33 34  2  0  0  0
 34 29  1  0  0  0
 29  1  1  0  0  0
  1  2  1  0  0  0
  3  2  1  0  0  0
  3  4  1  0  0  0
  4  5  2  0  0  0
  4  6  1  0  0  0
  6 19  1  0  0  0
 19 20  2  0  0  0
 20 21  1  0  0  0
 21 22  2  0  0  0
 22 23  1  0  0  0
 23 24  2  0  0  0
 24 25  1  0  0  0
 25 26  2  0  0  0
 26 27  1  0  0  0
 27 28  2  0  0  0
  6  7  1  0  0  0
  7  8  1  0  0  0
  8  9  1  0  0  0
  3 10  1  0  0  0
 10 11  2  0  0  0
 11 12  1  0  0  0
 12 13  1  0  0  0
 12 14  2  0  0  0
 14 15  1  0  0  0
 15 16  2  0  0  0
 16 17  1  0  0  0
 17 18  2  0  0  0
 34 30  1  0  0  0
 17  1  1  0  0  0
  8  3  1  0  0  0
 16 10  1  0  0  0
 28 19  1  0  0  0
 28 23  1  0  0  0
M  END
> <minimizedAffinity>
-8.12263

> <CNNscore>
0.1926499903

> <CNNaffinity>
6.1540517807

> <CNN_VS>
1.1855779886

> <CNNaffinity_variance>
0.0616608076

$$$$



 36 41  0  0  0  0  0  0  0  0999 V2000
   10.9267   -0.3624   23.2557 N   0  0  0  0  0  0  0  0  0  0  0  0
    9.4813    0.0112   23.4020 C   0  0  0  0  0  0  0  0  0  0  0  0
    9.0638    1.4480   23.2973 C   0  0  0  0  0  0  0  0  0  0  0  0
    8.4992    2.8354   23.2171 C   0  0  0  0  0  0  0  0  0  0  0  0
    8.8655    3.9808   23.0429 O   0  0  0  0  0  0  0  0  0  0  0  0
    7.0157    2.7447   23.4197 N   0  0  0  0  0  0  0  0  0  0  0  0
    6.6634    1.3012   23.6251 C   0  0  0  0  0  0  0  0  0  0  0  0
    7.9292    0.4998   23.5494 C   0  0  0  0  0  0  0  0  0  0  0  0
    8.0407   -0.9885   23.6995 C   0  0  0  0  0  0  0  0  0  0  0  0
   10.0916    2.5114   23.0463 C   0  0  0  0  0  0  0  0  0  0  0  0
    9.6740    3.9483   22.9416 C   0  0  0  0  0  0  0  0  0  0  0  0
   10.7018    5.0116   22.6906 C   0  0  0  0  0  0  0  0  0  0  0  0
   10.2842    6.4485   22.5858 F   0  0  0  0  0  0  0  0  0  0  0  0
   12.1471    4.6380   22.5443 C   0  0  0  0  0  0  0  0  0  0  0  0
   12.5647    3.2011   22.6490 C   0  0  0  0  0  0  0  0  0  0  0  0
   11.5369    2.1378   22.9000 C   0  0  0  0  0  0  0  0  0  0  0  0
   11.9545    0.7009   23.0047 C   0  0  0  0  0  0  0  0  0  0  0  0
   13.0390    0.6913   22.8651 O   0  0  0  0  0  0  0  0  0  0  0  0
    6.0535    3.8954   23.4173 C   0  0  0  0  0  0  0  0  0  0  0  0
    5.4315    4.3503   22.1304 C   0  0  0  0  0  0  0  0  0  0  0  0
    4.4693    5.5010   22.1280 N   0  0  0  0  0  0  0  0  0  0  0  0
    4.1291    6.1968   23.4126 C   0  0  0  0  0  0  0  0  0  0  0  0
    4.7512    5.7419   24.6995 C   0  0  0  0  0  0  0  0  0  0  0  0
    4.4109    6.4378   25.9841 C   0  0  0  0  0  0  0  0  0  0  0  0
    5.0330    5.9828   27.2710 C   0  0  0  0  0  0  0  0  0  0  0  0
    5.9952    4.8321   27.2733 C   0  0  0  0  0  0  0  0  0  0  0  0
    6.3354    4.1363   25.9888 C   0  0  0  0  0  0  0  0  0  0  0  0
    5.7134    4.5912   24.7019 C   0  0  0  0  0  0  0  0  0  0  0  0
   11.3442   -1.7994   23.3605 C   0  0  0  0  0  0  0  0  0  0  0  0
   11.3579   -3.2429   25.6102 N   0  0  0  0  0  0  0  0  0  0  0  0
   12.3471   -3.4790   26.7129 N   0  0  0  0  0  0  0  0  0  0  0  0
   13.5830   -2.6870   26.4044 C   0  0  0  0  0  0  0  0  0  0  0  0
   13.3578   -1.9614   25.1110 C   0  0  0  0  0  0  0  0  0  0  0  0
   11.9826   -2.3049   24.6202 C   0  0  0  0  0  0  0  0  0  0  0  0
    8.8698   -3.2949   26.3560 C   0  0  0  0  0  0  0  0  0  0  0  0
    9.9852   -3.8400   25.5143 C   0  0  0  0  0  0  0  0  0  0  0  0
 35 36  1  0  0  0
 36 30  1  0  0  0
 30 31  1  0  0  0
 31 32  2  0  0  0
 32 33  1  0  0  0
 33 34  2  0  0  0
 34 29  1  0  0  0
 29  1  1  0  0  0
  1  2  1  0  0  0
  3  2  1  0  0  0
  3  4  1  0  0  0
  4  5  2  0  0  0
  4  6  1  0  0  0
  6 19  1  0  0  0
 19 20  2  0  0  0
 20 21  1  0  0  0
 21 22  2  0  0  0
 22 23  1  0  0  0
 23 24  2  0  0  0
 24 25  1  0  0  0
 25 26  2  0  0  0
 26 27  1  0  0  0
 27 28  2  0  0  0
  6  7  1  0  0  0
  7  8  1  0  0  0
  8  9  1  0  0  0
  3 10  1  0  0  0
 10 11  2  0  0  0
 11 12  1  0  0  0
 12 13  1  0  0  0
 12 14  2  0  0  0
 14 15  1  0  0  0
 15 16  2  0  0  0
 16 17  1  0  0  0
 17 18  2  0  0  0
 34 30  1  0  0  0
 17  1  1  0  0  0
  8  3  1  0  0  0
 16 10  1  0  0  0
 28 19  1  0  0  0
 28 23  1  0  0  0
M  END
> <minimizedAffinity>
-7.96026

> <CNNscore>
0.1845089793

> <CNNaffinity>
6.3593606949

> <CNN_VS>
1.1733591557

> <CNNaffinity_variance>
0.1350279748

$$$$



 36 41  0  0  0  0  0  0  0  0999 V2000
    6.3187    0.8682   21.2856 N   0  0  0  0  0  0  0  0  0  0  0  0
    7.6439    0.9335   21.9853 C   0  0  0  0  0  0  0  0  0  0  0  0
    8.2237   -0.3006   22.6104 C   0  0  0  0  0  0  0  0  0  0  0  0
    8.9252   -1.4456   23.2788 C   0  0  0  0  0  0  0  0  0  0  0  0
    8.7730   -2.6314   23.4961 O   0  0  0  0  0  0  0  0  0  0  0  0
   10.2151   -0.9315   23.8460 N   0  0  0  0  0  0  0  0  0  0  0  0
   10.3108    0.5313   23.5281 C   0  0  0  0  0  0  0  0  0  0  0  0
    9.0801    0.9212   22.7645 C   0  0  0  0  0  0  0  0  0  0  0  0
    8.7616    2.2922   22.2460 C   0  0  0  0  0  0  0  0  0  0  0  0
    7.4782   -1.6002   22.5358 C   0  0  0  0  0  0  0  0  0  0  0  0
    8.0579   -2.8343   23.1609 C   0  0  0  0  0  0  0  0  0  0  0  0
    7.3124   -4.1338   23.0863 C   0  0  0  0  0  0  0  0  0  0  0  0
    7.8921   -5.3680   23.7114 F   0  0  0  0  0  0  0  0  0  0  0  0
    5.9872   -4.1991   22.3866 C   0  0  0  0  0  0  0  0  0  0  0  0
    5.4075   -2.9649   21.7615 C   0  0  0  0  0  0  0  0  0  0  0  0
    6.1530   -1.6655   21.8361 C   0  0  0  0  0  0  0  0  0  0  0  0
    5.5732   -0.4312   21.2110 C   0  0  0  0  0  0  0  0  0  0  0  0
    4.6190   -0.7355   20.7722 O   0  0  0  0  0  0  0  0  0  0  0  0
   11.2310   -1.7385   24.5988 C   0  0  0  0  0  0  0  0  0  0  0  0
   12.6707   -1.7125   24.1785 C   0  0  0  0  0  0  0  0  0  0  0  0
   13.6865   -2.5195   24.9313 N   0  0  0  0  0  0  0  0  0  0  0  0
   13.2627   -3.3525   26.1046 C   0  0  0  0  0  0  0  0  0  0  0  0
   11.8230   -3.3785   26.5249 C   0  0  0  0  0  0  0  0  0  0  0  0
   11.3991   -4.2115   27.6982 C   0  0  0  0  0  0  0  0  0  0  0  0
    9.9595   -4.2375   28.1185 C   0  0  0  0  0  0  0  0  0  0  0  0
    8.9436   -3.4305   27.3656 C   0  0  0  0  0  0  0  0  0  0  0  0
    9.3675   -2.5975   26.1924 C   0  0  0  0  0  0  0  0  0  0  0  0
   10.8071   -2.5715   25.7721 C   0  0  0  0  0  0  0  0  0  0  0  0
    5.7390    2.1024   20.6605 C   0  0  0  0  0  0  0  0  0  0  0  0
    3.5722    2.0031   19.0984 N   0  0  0  0  0  0  0  0  0  0  0  0
    2.0993    2.1876   19.3147 N   0  0  0  0  0  0  0  0  0  0  0  0
    1.8789    2.4950   20.7662 C   0  0  0  0  0  0  0  0  0  0  0  0
    3.2155    2.5005   21.4470 C   0  0  0  0  0  0  0  0  0  0  0  0
    4.2620    2.1965   20.4163 C   0  0  0  0  0  0  0  0  0  0  0  0
    5.0412    0.4228   17.6511 C   0  0  0  0  0  0  0  0  0  0  0  0
    4.2382    1.6817   17.7933 C   0  0  0  0  0  0  0  0  0  0  0  0
 35 36  1  0  0  0
 36 30  1  0  0  0
 30 31  1  0  0  0
 31 32  2  0  0  0
 32 33  1  0  0  0
 33 34  2  0  0  0
 34 29  1  0  0  0
 29  1  1  0  0  0
  1  2  1  0  0  0
  3  2  1  0  0  0
  3  4  1  0  0  0
  4  5  2  0  0  0
  4  6  1  0  0  0
  6 19  1  0  0  0
 19 20  2  0  0  0
 20 21  1  0  0  0
 21 22  2  0  0  0
 22 23  1  0  0  0
 23 24  2  0  0  0
 24 25  1  0  0  0
 25 26  2  0  0  0
 26 27  1  0  0  0
 27 28  2  0  0  0
  6  7  1  0  0  0
  7  8  1  0  0  0
  8  9  1  0  0  0
  3 10  1  0  0  0
 10 11  2  0  0  0
 11 12  1  0  0  0
 12 13  1  0  0  0
 12 14  2  0  0  0
 14 15  1  0  0  0
 15 16  2  0  0  0
 16 17  1  0  0  0
 17 18  2  0  0  0
 34 30  1  0  0  0
 17  1  1  0  0  0
  8  3  1  0  0  0
 16 10  1  0  0  0
 28 19  1  0  0  0
 28 23  1  0  0  0
M  END
> <minimizedAffinity>
-8.14062

> <CNNscore>
0.1819863170

> <CNNaffinity>
6.3700203896

> <CNN_VS>
1.1592565775

> <CNNaffinity_variance>
0.1426901817

$$$$



 36 41  0  0  0  0  0  0  0  0999 V2000
   10.5726   -0.7965   22.9427 N   0  0  0  0  0  0  0  0  0  0  0  0
    9.1402   -1.1169   22.6335 C   0  0  0  0  0  0  0  0  0  0  0  0
    8.1342   -0.0113   22.5098 C   0  0  0  0  0  0  0  0  0  0  0  0
    7.0214    0.9829   22.3569 C   0  0  0  0  0  0  0  0  0  0  0  0
    6.8319    2.1822   22.4031 O   0  0  0  0  0  0  0  0  0  0  0  0
    5.7626    0.2265   22.0517 N   0  0  0  0  0  0  0  0  0  0  0  0
    6.0973   -1.2353   22.0161 C   0  0  0  0  0  0  0  0  0  0  0  0
    7.5630   -1.3822   22.2991 C   0  0  0  0  0  0  0  0  0  0  0  0
    8.3239   -2.6734   22.3608 C   0  0  0  0  0  0  0  0  0  0  0  0
    8.5605    1.4149   22.6953 C   0  0  0  0  0  0  0  0  0  0  0  0
    7.5544    2.5206   22.5715 C   0  0  0  0  0  0  0  0  0  0  0  0
    7.9808    3.9467   22.7570 C   0  0  0  0  0  0  0  0  0  0  0  0
    6.9747    5.0524   22.6333 F   0  0  0  0  0  0  0  0  0  0  0  0
    9.4131    4.2671   23.0663 C   0  0  0  0  0  0  0  0  0  0  0  0
   10.4192    3.1614   23.1900 C   0  0  0  0  0  0  0  0  0  0  0  0
    9.9929    1.7354   23.0045 C   0  0  0  0  0  0  0  0  0  0  0  0
   10.9989    0.6296   23.1282 C   0  0  0  0  0  0  0  0  0  0  0  0
   11.9530    1.1141   23.3532 O   0  0  0  0  0  0  0  0  0  0  0  0
    4.4070    0.8265   21.8225 C   0  0  0  0  0  0  0  0  0  0  0  0
    3.9410    1.1154   20.4263 C   0  0  0  0  0  0  0  0  0  0  0  0
    2.5855    1.7154   20.1971 N   0  0  0  0  0  0  0  0  0  0  0  0
    1.6960    2.0264   21.3641 C   0  0  0  0  0  0  0  0  0  0  0  0
    2.1620    1.7375   22.7603 C   0  0  0  0  0  0  0  0  0  0  0  0
    1.2724    2.0486   23.9274 C   0  0  0  0  0  0  0  0  0  0  0  0
    1.7385    1.7596   25.3236 C   0  0  0  0  0  0  0  0  0  0  0  0
    3.0940    1.1597   25.5528 C   0  0  0  0  0  0  0  0  0  0  0  0
    3.9835    0.8486   24.3858 C   0  0  0  0  0  0  0  0  0  0  0  0
    3.5175    1.1375   22.9896 C   0  0  0  0  0  0  0  0  0  0  0  0
   11.5787   -1.9022   23.0664 C   0  0  0  0  0  0  0  0  0  0  0  0
   11.4332   -3.0615   25.4707 N   0  0  0  0  0  0  0  0  0  0  0  0
   12.3549   -3.1808   26.6481 N   0  0  0  0  0  0  0  0  0  0  0  0
   13.6260   -2.4563   26.3172 C   0  0  0  0  0  0  0  0  0  0  0  0
   13.4899   -1.8891   24.9352 C   0  0  0  0  0  0  0  0  0  0  0  0
   12.1347   -2.2631   24.4120 C   0  0  0  0  0  0  0  0  0  0  0  0
    8.9018   -2.9543   26.0452 C   0  0  0  0  0  0  0  0  0  0  0  0
   10.0526   -3.6391   25.3696 C   0  0  0  0  0  0  0  0  0  0  0  0
 35 36  1  0  0  0
 36 30  1  0  0  0
 30 31  1  0  0  0
 31 32  2  0  0  0
 32 33  1  0  0  0
 33 34  2  0  0  0
 34 29  1  0  0  0
 29  1  1  0  0  0
  1  2  1  0  0  0
  3  2  1  0  0  0
  3  4  1  0  0  0
  4  5  2  0  0  0
  4  6  1  0  0  0
  6 19  1  0  0  0
 19 20  2  0  0  0
 20 21  1  0  0  0
 21 22  2  0  0  0
 22 23  1  0  0  0
 23 24  2  0  0  0
 24 25  1  0  0  0
 25 26  2  0  0  0
 26 27  1  0  0  0
 27 28  2  0  0  0
  6  7  1  0  0  0
  7  8  1  0  0  0
  8  9  1  0  0  0
  3 10  1  0  0  0
 10 11  2  0  0  0
 11 12  1  0  0  0
 12 13  1  0  0  0
 12 14  2  0  0  0
 14 15  1  0  0  0
 15 16  2  0  0  0
 16 17  1  0  0  0
 17 18  2  0  0  0
 34 30  1  0  0  0
 17  1  1  0  0  0
  8  3  1  0  0  0
 16 10  1  0  0  0
 28 19  1  0  0  0
 28 23  1  0  0  0
M  END
> <minimizedAffinity>
-7.56686

> <CNNscore>
0.1804791689

> <CNNaffinity>
6.5705347061

> <CNN_VS>
1.1858446598

> <CNNaffinity_variance>
0.0453048833

$$$$



 36 41  0  0  0  0  0  0  0  0999 V2000
   10.3012   -0.7937   23.0814 N   0  0  0  0  0  0  0  0  0  0  0  0
    8.8388   -1.1149   22.9913 C   0  0  0  0  0  0  0  0  0  0  0  0
    7.8283   -0.0068   22.9567 C   0  0  0  0  0  0  0  0  0  0  0  0
    6.7078    0.9895   22.9134 C   0  0  0  0  0  0  0  0  0  0  0  0
    6.5299    2.1913   22.9282 O   0  0  0  0  0  0  0  0  0  0  0  0
    5.4166    0.2314   22.8241 N   0  0  0  0  0  0  0  0  0  0  0  0
    5.7390   -1.2335   22.8121 C   0  0  0  0  0  0  0  0  0  0  0  0
    7.2295   -1.3807   22.8940 C   0  0  0  0  0  0  0  0  0  0  0  0
    7.9881   -2.6747   22.9105 C   0  0  0  0  0  0  0  0  0  0  0  0
    8.2803    1.4224   23.0121 C   0  0  0  0  0  0  0  0  0  0  0  0
    7.2698    2.5304   22.9775 C   0  0  0  0  0  0  0  0  0  0  0  0
    7.7218    3.9596   23.0329 C   0  0  0  0  0  0  0  0  0  0  0  0
    6.7113    5.0677   22.9983 F   0  0  0  0  0  0  0  0  0  0  0  0
    9.1843    4.2808   23.1230 C   0  0  0  0  0  0  0  0  0  0  0  0
   10.1947    3.1728   23.1576 C   0  0  0  0  0  0  0  0  0  0  0  0
    9.7427    1.7436   23.1022 C   0  0  0  0  0  0  0  0  0  0  0  0
   10.7532    0.6355   23.1368 C   0  0  0  0  0  0  0  0  0  0  0  0
   11.7308    1.1211   23.2027 O   0  0  0  0  0  0  0  0  0  0  0  0
    4.0439    0.8326   22.7583 C   0  0  0  0  0  0  0  0  0  0  0  0
    3.1863    0.8803   23.9879 C   0  0  0  0  0  0  0  0  0  0  0  0
    1.8136    1.4815   23.9221 N   0  0  0  0  0  0  0  0  0  0  0  0
    1.2987    2.0351   22.6266 C   0  0  0  0  0  0  0  0  0  0  0  0
    2.1564    1.9874   21.3969 C   0  0  0  0  0  0  0  0  0  0  0  0
    1.6413    2.5410   20.1014 C   0  0  0  0  0  0  0  0  0  0  0  0
    2.4991    2.4933   18.8717 C   0  0  0  0  0  0  0  0  0  0  0  0
    3.8717    1.8920   18.9375 C   0  0  0  0  0  0  0  0  0  0  0  0
    4.3867    1.3385   20.2331 C   0  0  0  0  0  0  0  0  0  0  0  0
    3.5290    1.3862   21.4627 C   0  0  0  0  0  0  0  0  0  0  0  0
   11.3117   -1.9018   23.1161 C   0  0  0  0  0  0  0  0  0  0  0  0
   11.5162   -3.0909   25.5014 N   0  0  0  0  0  0  0  0  0  0  0  0
   12.5586   -3.1340   26.5791 N   0  0  0  0  0  0  0  0  0  0  0  0
   13.7178   -2.2909   26.1368 C   0  0  0  0  0  0  0  0  0  0  0  0
   13.3917   -1.7267   24.7857 C   0  0  0  0  0  0  0  0  0  0  0  0
   12.0311   -2.2211   24.3930 C   0  0  0  0  0  0  0  0  0  0  0  0
    9.0900   -3.2863   26.4100 C   0  0  0  0  0  0  0  0  0  0  0  0
   10.1914   -3.7940   25.5274 C   0  0  0  0  0  0  0  0  0  0  0  0
 35 36  1  0  0  0
 36 30  1  0  0  0
 30 31  1  0  0  0
 31 32  2  0  0  0
 32 33  1  0  0  0
 33 34  2  0  0  0
 34 29  1  0  0  0
 29  1  1  0  0  0
  1  2  1  0  0  0
  3  2  1  0  0  0
  3  4  1  0  0  0
  4  5  2  0  0  0
  4  6  1  0  0  0
  6 19  1  0  0  0
 19 20  2  0  0  0
 20 21  1  0  0  0
 21 22  2  0  0  0
 22 23  1  0  0  0
 23 24  2  0  0  0
 24 25  1  0  0  0
 25 26  2  0  0  0
 26 27  1  0  0  0
 27 28  2  0  0  0
  6  7  1  0  0  0
  7  8  1  0  0  0
  8  9  1  0  0  0
  3 10  1  0  0  0
 10 11  2  0  0  0
 11 12  1  0  0  0
 12 13  1  0  0  0
 12 14  2  0  0  0
 14 15  1  0  0  0
 15 16  2  0  0  0
 16 17  1  0  0  0
 17 18  2  0  0  0
 34 30  1  0  0  0
 17  1  1  0  0  0
  8  3  1  0  0  0
 16 10  1  0  0  0
 28 19  1  0  0  0
 28 23  1  0  0  0
M  END
> <minimizedAffinity>
-8.37887

> <CNNscore>
0.1614213586

> <CNNaffinity>
6.5737733841

> <CNN_VS>
1.0611474514

> <CNNaffinity_variance>
0.0437584035

$$$$
