


 38 42  0  0  0  0  0  0  0  0999 V2000
   -6.9872   -0.6284  -22.8715 N   0  0  0  0  0  0  0  0  0  0  0  0
   -7.4780    0.7714  -23.0946 C   0  0  0  0  0  0  0  0  0  0  0  0
   -8.9478    1.0382  -23.2298 C   0  0  0  0  0  0  0  0  0  0  0  0
  -10.3801    1.4565  -23.3831 C   0  0  0  0  0  0  0  0  0  0  0  0
  -11.4950    0.9733  -23.3927 O   0  0  0  0  0  0  0  0  0  0  0  0
  -10.4100    2.9423  -23.5868 N   0  0  0  0  0  0  0  0  0  0  0  0
   -8.9960    3.4424  -23.5594 C   0  0  0  0  0  0  0  0  0  0  0  0
   -8.0924    2.2656  -23.3388 C   0  0  0  0  0  0  0  0  0  0  0  0
   -9.9270   -0.0947  -23.1420 C   0  0  0  0  0  0  0  0  0  0  0  0
  -11.3968    0.1721  -23.2773 C   0  0  0  0  0  0  0  0  0  0  0  0
  -12.3759   -0.9609  -23.1895 C   0  0  0  0  0  0  0  0  0  0  0  0
  -13.8458   -0.6941  -23.3248 Cl  0  0  0  0  0  0  0  0  0  0  0  0
  -11.8852   -2.3607  -22.9664 C   0  0  0  0  0  0  0  0  0  0  0  0
  -10.4153   -2.6275  -22.8311 C   0  0  0  0  0  0  0  0  0  0  0  0
   -9.4362   -1.4945  -22.9189 C   0  0  0  0  0  0  0  0  0  0  0  0
   -7.9663   -1.7613  -22.7837 C   0  0  0  0  0  0  0  0  0  0  0  0
   -7.4756   -3.1611  -22.5606 O   0  0  0  0  0  0  0  0  0  0  0  0
  -11.6381    3.7808  -23.7834 C   0  0  0  0  0  0  0  0  0  0  0  0
  -12.5741    4.0206  -22.6361 C   0  0  0  0  0  0  0  0  0  0  0  0
  -13.8022    4.8591  -22.8327 N   0  0  0  0  0  0  0  0  0  0  0  0
  -14.0943    5.4577  -24.1766 C   0  0  0  0  0  0  0  0  0  0  0  0
  -13.1583    5.2179  -25.3240 C   0  0  0  0  0  0  0  0  0  0  0  0
  -13.4505    5.8166  -26.6680 C   0  0  0  0  0  0  0  0  0  0  0  0
  -12.5144    5.5768  -27.8153 C   0  0  0  0  0  0  0  0  0  0  0  0
  -11.2863    4.7383  -27.6187 C   0  0  0  0  0  0  0  0  0  0  0  0
  -10.9942    4.1396  -26.2748 C   0  0  0  0  0  0  0  0  0  0  0  0
  -11.9302    4.3794  -25.1274 C   0  0  0  0  0  0  0  0  0  0  0  0
   -6.5960    2.3086  -23.2438 N   0  0  0  0  0  0  0  0  0  0  0  0
   -5.9236    3.4220  -22.4967 C   0  0  0  0  0  0  0  0  0  0  0  0
   -4.4273    3.4651  -22.4017 C   0  0  0  0  0  0  0  0  0  0  0  0
   -6.7477    4.4924  -21.8445 O   0  0  0  0  0  0  0  0  0  0  0  0
   -6.0552    1.6061  -23.6718 H   0  0  0  0  0  0  0  0  0  0  0  0
   -5.5173   -0.8952  -22.7362 C   0  0  0  0  0  0  0  0  0  0  0  0
   -3.7487   -1.6490  -26.2080 C   0  0  0  0  0  0  0  0  0  0  0  0
   -4.6490   -1.7880  -25.0163 N   0  0  0  0  0  0  0  0  0  0  0  0
   -4.6171   -0.7563  -23.9279 C   0  0  0  0  0  0  0  0  0  0  0  0
   -3.6849    0.4144  -24.0313 O   0  0  0  0  0  0  0  0  0  0  0  0
   -5.2608   -2.5563  -24.9484 H   0  0  0  0  0  0  0  0  0  0  0  0
 34 35  1  0  0  0
 35 36  1  0  0  0
 36 37  2  0  0  0
 36 33  1  0  0  0
 33  1  1  0  0  0
  1  2  1  0  0  0
  3  2  1  0  0  0
  3  4  1  0  0  0
  4  5  2  0  0  0
  4  6  1  0  0  0
  6 18  1  0  0  0
 18 19  2  0  0  0
 19 20  1  0  0  0
 20 21  2  0  0  0
 21 22  1  0  0  0
 22 23  2  0  0  0
 23 24  1  0  0  0
 24 25  2  0  0  0
 25 26  1  0  0  0
 26 27  2  0  0  0
  6  7  1  0  0  0
  7  8  1  0  0  0
  8 28  1  0  0  0
 28 29  1  0  0  0
 29 30  1  0  0  0
 29 31  2  0  0  0
  3  9  1  0  0  0
  9 10  2  0  0  0
 10 11  1  0  0  0
 11 12  1  0  0  0
 11 13  2  0  0  0
 13 14  1  0  0  0
 14 15  2  0  0  0
 15 16  1  0  0  0
 16 17  2  0  0  0
 16  1  1  0  0  0
  8  3  1  0  0  0
 15  9  1  0  0  0
 27 18  1  0  0  0
 27 22  1  0  0  0
 35 38  1  0  0  0
 28 32  1  0  0  0
M  END
> <minimizedAffinity>
-7.54284

> <CNNscore>
0.5051869154

> <CNNaffinity>
6.3760361671

> <CNN_VS>
3.2210900784

> <CNNaffinity_variance>
0.1161561757

$$$$



 38 42  0  0  0  0  0  0  0  0999 V2000
   -7.6684   -3.9251  -25.8978 N   0  0  0  0  0  0  0  0  0  0  0  0
   -7.1434   -3.9406  -24.4928 C   0  0  0  0  0  0  0  0  0  0  0  0
   -6.9279   -2.6507  -23.7583 C   0  0  0  0  0  0  0  0  0  0  0  0
   -6.6633   -1.4475  -22.9026 C   0  0  0  0  0  0  0  0  0  0  0  0
   -6.7368   -0.2357  -22.9521 O   0  0  0  0  0  0  0  0  0  0  0  0
   -6.1471   -1.9253  -21.5777 N   0  0  0  0  0  0  0  0  0  0  0  0
   -6.0928   -3.4239  -21.6146 C   0  0  0  0  0  0  0  0  0  0  0  0
   -6.5754   -3.8721  -22.9623 C   0  0  0  0  0  0  0  0  0  0  0  0
   -7.2375   -1.3450  -24.4289 C   0  0  0  0  0  0  0  0  0  0  0  0
   -7.0221   -0.0551  -23.6944 C   0  0  0  0  0  0  0  0  0  0  0  0
   -7.3316    1.2505  -24.3650 C   0  0  0  0  0  0  0  0  0  0  0  0
   -7.1162    2.5406  -23.6305 Cl  0  0  0  0  0  0  0  0  0  0  0  0
   -7.8567    1.2660  -25.7700 C   0  0  0  0  0  0  0  0  0  0  0  0
   -8.0721   -0.0239  -26.5045 C   0  0  0  0  0  0  0  0  0  0  0  0
   -7.7626   -1.3295  -25.8339 C   0  0  0  0  0  0  0  0  0  0  0  0
   -7.9780   -2.6195  -26.5684 C   0  0  0  0  0  0  0  0  0  0  0  0
   -8.5031   -2.6040  -27.9734 O   0  0  0  0  0  0  0  0  0  0  0  0
   -5.7543   -1.0571  -20.4194 C   0  0  0  0  0  0  0  0  0  0  0  0
   -6.5085   -1.1459  -19.1258 C   0  0  0  0  0  0  0  0  0  0  0  0
   -6.1157   -0.2776  -17.9675 N   0  0  0  0  0  0  0  0  0  0  0  0
   -4.9687    0.6795  -18.1027 C   0  0  0  0  0  0  0  0  0  0  0  0
   -4.2145    0.7683  -19.3963 C   0  0  0  0  0  0  0  0  0  0  0  0
   -3.0674    1.7255  -19.5315 C   0  0  0  0  0  0  0  0  0  0  0  0
   -2.3133    1.8143  -20.8251 C   0  0  0  0  0  0  0  0  0  0  0  0
   -2.7061    0.9460  -21.9835 C   0  0  0  0  0  0  0  0  0  0  0  0
   -3.8531   -0.0111  -21.8482 C   0  0  0  0  0  0  0  0  0  0  0  0
   -4.6073   -0.1000  -20.5546 C   0  0  0  0  0  0  0  0  0  0  0  0
   -6.6859   -5.2926  -23.4316 N   0  0  0  0  0  0  0  0  0  0  0  0
   -6.0712   -6.3985  -22.6262 C   0  0  0  0  0  0  0  0  0  0  0  0
   -6.1817   -7.8190  -23.0954 C   0  0  0  0  0  0  0  0  0  0  0  0
   -5.3458   -6.0841  -21.3513 O   0  0  0  0  0  0  0  0  0  0  0  0
   -7.1620   -5.4989  -24.2682 H   0  0  0  0  0  0  0  0  0  0  0  0
   -7.8839   -5.2152  -26.6323 C   0  0  0  0  0  0  0  0  0  0  0  0
   -5.0275   -7.7720  -27.6587 C   0  0  0  0  0  0  0  0  0  0  0  0
   -6.1600   -7.1396  -26.9054 N   0  0  0  0  0  0  0  0  0  0  0  0
   -6.7513   -5.8475  -27.3856 C   0  0  0  0  0  0  0  0  0  0  0  0
   -6.2101   -5.1876  -28.6192 O   0  0  0  0  0  0  0  0  0  0  0  0
   -6.5153   -7.5727  -26.0957 H   0  0  0  0  0  0  0  0  0  0  0  0
 34 35  1  0  0  0
 35 36  1  0  0  0
 36 37  2  0  0  0
 36 33  1  0  0  0
 33  1  1  0  0  0
  1  2  1  0  0  0
  3  2  1  0  0  0
  3  4  1  0  0  0
  4  5  2  0  0  0
  4  6  1  0  0  0
  6 18  1  0  0  0
 18 19  2  0  0  0
 19 20  1  0  0  0
 20 21  2  0  0  0
 21 22  1  0  0  0
 22 23  2  0  0  0
 23 24  1  0  0  0
 24 25  2  0  0  0
 25 26  1  0  0  0
 26 27  2  0  0  0
  6  7  1  0  0  0
  7  8  1  0  0  0
  8 28  1  0  0  0
 28 29  1  0  0  0
 29 30  1  0  0  0
 29 31  2  0  0  0
  3  9  1  0  0  0
  9 10  2  0  0  0
 10 11  1  0  0  0
 11 12  1  0  0  0
 11 13  2  0  0  0
 13 14  1  0  0  0
 14 15  2  0  0  0
 15 16  1  0  0  0
 16 17  2  0  0  0
 16  1  1  0  0  0
  8  3  1  0  0  0
 15  9  1  0  0  0
 27 18  1  0  0  0
 27 22  1  0  0  0
 35 38  1  0  0  0
 28 32  1  0  0  0
M  END
> <minimizedAffinity>
-8.32818

> <CNNscore>
0.4001708031

> <CNNaffinity>
6.3368291855

> <CNN_VS>
2.5358140469

> <CNNaffinity_variance>
0.1247879863

$$$$



 38 42  0  0  0  0  0  0  0  0999 V2000
  -10.5333    3.6609  -24.0330 N   0  0  0  0  0  0  0  0  0  0  0  0
   -9.2729    2.8520  -23.9498 C   0  0  0  0  0  0  0  0  0  0  0  0
   -9.3452    1.3738  -23.7056 C   0  0  0  0  0  0  0  0  0  0  0  0
   -9.2605   -0.1047  -23.4675 C   0  0  0  0  0  0  0  0  0  0  0  0
   -9.9872   -1.0610  -23.2831 O   0  0  0  0  0  0  0  0  0  0  0  0
   -7.8111   -0.4910  -23.4606 N   0  0  0  0  0  0  0  0  0  0  0  0
   -6.9999    0.7489  -23.6946 C   0  0  0  0  0  0  0  0  0  0  0  0
   -7.9480    1.9013  -23.8460 C   0  0  0  0  0  0  0  0  0  0  0  0
  -10.6779    0.7045  -23.5446 C   0  0  0  0  0  0  0  0  0  0  0  0
  -10.7502   -0.7737  -23.3004 C   0  0  0  0  0  0  0  0  0  0  0  0
  -12.0829   -1.4430  -23.1394 C   0  0  0  0  0  0  0  0  0  0  0  0
  -12.1552   -2.9212  -22.8952 Cl  0  0  0  0  0  0  0  0  0  0  0  0
  -13.3433   -0.6340  -23.2226 C   0  0  0  0  0  0  0  0  0  0  0  0
  -13.2710    0.8442  -23.4668 C   0  0  0  0  0  0  0  0  0  0  0  0
  -11.9383    1.5134  -23.6278 C   0  0  0  0  0  0  0  0  0  0  0  0
  -11.8660    2.9917  -23.8720 C   0  0  0  0  0  0  0  0  0  0  0  0
  -13.1264    3.8006  -23.9552 O   0  0  0  0  0  0  0  0  0  0  0  0
   -7.2682   -1.8742  -23.2558 C   0  0  0  0  0  0  0  0  0  0  0  0
   -6.6890   -2.2636  -21.9281 C   0  0  0  0  0  0  0  0  0  0  0  0
   -6.1461   -3.6468  -21.7232 N   0  0  0  0  0  0  0  0  0  0  0  0
   -6.1825   -4.6407  -22.8462 C   0  0  0  0  0  0  0  0  0  0  0  0
   -6.7617   -4.2513  -24.1739 C   0  0  0  0  0  0  0  0  0  0  0  0
   -6.7981   -5.2452  -25.2968 C   0  0  0  0  0  0  0  0  0  0  0  0
   -7.3774   -4.8557  -26.6245 C   0  0  0  0  0  0  0  0  0  0  0  0
   -7.9203   -3.4725  -26.8293 C   0  0  0  0  0  0  0  0  0  0  0  0
   -7.8839   -2.4787  -25.7064 C   0  0  0  0  0  0  0  0  0  0  0  0
   -7.3046   -2.8680  -24.3787 C   0  0  0  0  0  0  0  0  0  0  0  0
   -7.5660    3.3305  -24.0942 N   0  0  0  0  0  0  0  0  0  0  0  0
   -6.6756    4.0482  -23.1238 C   0  0  0  0  0  0  0  0  0  0  0  0
   -6.2936    5.4774  -23.3720 C   0  0  0  0  0  0  0  0  0  0  0  0
   -6.1671    3.3368  -21.9050 O   0  0  0  0  0  0  0  0  0  0  0  0
   -7.8998    3.7974  -24.8941 H   0  0  0  0  0  0  0  0  0  0  0  0
  -10.4610    5.1392  -24.2773 C   0  0  0  0  0  0  0  0  0  0  0  0
  -12.6227    6.5729  -27.2809 C   0  0  0  0  0  0  0  0  0  0  0  0
  -12.2574    6.0160  -25.9368 N   0  0  0  0  0  0  0  0  0  0  0  0
  -10.8263    5.6960  -25.6213 C   0  0  0  0  0  0  0  0  0  0  0  0
   -9.7604    5.9329  -26.6499 O   0  0  0  0  0  0  0  0  0  0  0  0
  -12.9569    5.8606  -25.2617 H   0  0  0  0  0  0  0  0  0  0  0  0
 34 35  1  0  0  0
 35 36  1  0  0  0
 36 37  2  0  0  0
 36 33  1  0  0  0
 33  1  1  0  0  0
  1  2  1  0  0  0
  3  2  1  0  0  0
  3  4  1  0  0  0
  4  5  2  0  0  0
  4  6  1  0  0  0
  6 18  1  0  0  0
 18 19  2  0  0  0
 19 20  1  0  0  0
 20 21  2  0  0  0
 21 22  1  0  0  0
 22 23  2  0  0  0
 23 24  1  0  0  0
 24 25  2  0  0  0
 25 26  1  0  0  0
 26 27  2  0  0  0
  6  7  1  0  0  0
  7  8  1  0  0  0
  8 28  1  0  0  0
 28 29  1  0  0  0
 29 30  1  0  0  0
 29 31  2  0  0  0
  3  9  1  0  0  0
  9 10  2  0  0  0
 10 11  1  0  0  0
 11 12  1  0  0  0
 11 13  2  0  0  0
 13 14  1  0  0  0
 14 15  2  0  0  0
 15 16  1  0  0  0
 16 17  2  0  0  0
 16  1  1  0  0  0
  8  3  1  0  0  0
 15  9  1  0  0  0
 27 18  1  0  0  0
 27 22  1  0  0  0
 35 38  1  0  0  0
 28 32  1  0  0  0
M  END
> <minimizedAffinity>
-7.23547

> <CNNscore>
0.3774918914

> <CNNaffinity>
6.3351674080

> <CNN_VS>
2.3914742470

> <CNNaffinity_variance>
0.5195257068

$$$$



 38 42  0  0  0  0  0  0  0  0999 V2000
   -7.0123   -1.1069  -22.2515 N   0  0  0  0  0  0  0  0  0  0  0  0
   -7.0997    0.2047  -22.9740 C   0  0  0  0  0  0  0  0  0  0  0  0
   -8.4151    0.6730  -23.5220 C   0  0  0  0  0  0  0  0  0  0  0  0
   -9.6545    1.2687  -24.1212 C   0  0  0  0  0  0  0  0  0  0  0  0
  -10.8362    1.0196  -24.2547 O   0  0  0  0  0  0  0  0  0  0  0  0
   -9.2838    2.5831  -24.7416 N   0  0  0  0  0  0  0  0  0  0  0  0
   -7.8153    2.7997  -24.5259 C   0  0  0  0  0  0  0  0  0  0  0  0
   -7.2784    1.6192  -23.7722 C   0  0  0  0  0  0  0  0  0  0  0  0
   -9.6433   -0.1705  -23.3476 C   0  0  0  0  0  0  0  0  0  0  0  0
  -10.9587    0.2978  -23.8956 C   0  0  0  0  0  0  0  0  0  0  0  0
  -12.1867   -0.5456  -23.7212 C   0  0  0  0  0  0  0  0  0  0  0  0
  -13.5023   -0.0774  -24.2693 Cl  0  0  0  0  0  0  0  0  0  0  0  0
  -12.0994   -1.8573  -22.9988 C   0  0  0  0  0  0  0  0  0  0  0  0
  -10.7840   -2.3255  -22.4507 C   0  0  0  0  0  0  0  0  0  0  0  0
   -9.5559   -1.4821  -22.6252 C   0  0  0  0  0  0  0  0  0  0  0  0
   -8.2404   -1.9504  -22.0771 C   0  0  0  0  0  0  0  0  0  0  0  0
   -8.1530   -3.2620  -21.3547 O   0  0  0  0  0  0  0  0  0  0  0  0
  -10.2177    3.5169  -25.4529 C   0  0  0  0  0  0  0  0  0  0  0  0
  -10.0385    3.7851  -26.9178 C   0  0  0  0  0  0  0  0  0  0  0  0
  -10.9724    4.7189  -27.6290 N   0  0  0  0  0  0  0  0  0  0  0  0
  -12.0854    5.3845  -26.8754 C   0  0  0  0  0  0  0  0  0  0  0  0
  -12.2646    5.1163  -25.4104 C   0  0  0  0  0  0  0  0  0  0  0  0
  -13.3777    5.7820  -24.6567 C   0  0  0  0  0  0  0  0  0  0  0  0
  -13.5568    5.5138  -23.1918 C   0  0  0  0  0  0  0  0  0  0  0  0
  -12.6229    4.5800  -22.4806 C   0  0  0  0  0  0  0  0  0  0  0  0
  -11.5099    3.9143  -23.2343 C   0  0  0  0  0  0  0  0  0  0  0  0
  -11.3307    4.1825  -24.6992 C   0  0  0  0  0  0  0  0  0  0  0  0
   -5.8548    1.4199  -23.3438 N   0  0  0  0  0  0  0  0  0  0  0  0
   -5.1905    2.4295  -22.4554 C   0  0  0  0  0  0  0  0  0  0  0  0
   -3.7668    2.2302  -22.0270 C   0  0  0  0  0  0  0  0  0  0  0  0
   -5.9499    3.6386  -21.9954 O   0  0  0  0  0  0  0  0  0  0  0  0
   -5.3564    0.6264  -23.6457 H   0  0  0  0  0  0  0  0  0  0  0  0
   -5.6968   -1.5752  -21.7035 C   0  0  0  0  0  0  0  0  0  0  0  0
   -5.4905   -5.5346  -21.8764 C   0  0  0  0  0  0  0  0  0  0  0  0
   -5.6621   -4.1046  -22.2955 N   0  0  0  0  0  0  0  0  0  0  0  0
   -5.5252   -3.0052  -21.2844 C   0  0  0  0  0  0  0  0  0  0  0  0
   -5.2168   -3.3357  -19.8541 O   0  0  0  0  0  0  0  0  0  0  0  0
   -5.8645   -3.8877  -23.2342 H   0  0  0  0  0  0  0  0  0  0  0  0
 34 35  1  0  0  0
 35 36  1  0  0  0
 36 37  2  0  0  0
 36 33  1  0  0  0
 33  1  1  0  0  0
  1  2  1  0  0  0
  3  2  1  0  0  0
  3  4  1  0  0  0
  4  5  2  0  0  0
  4  6  1  0  0  0
  6 18  1  0  0  0
 18 19  2  0  0  0
 19 20  1  0  0  0
 20 21  2  0  0  0
 21 22  1  0  0  0
 22 23  2  0  0  0
 23 24  1  0  0  0
 24 25  2  0  0  0
 25 26  1  0  0  0
 26 27  2  0  0  0
  6  7  1  0  0  0
  7  8  1  0  0  0
  8 28  1  0  0  0
 28 29  1  0  0  0
 29 30  1  0  0  0
 29 31  2  0  0  0
  3  9  1  0  0  0
  9 10  2  0  0  0
 10 11  1  0  0  0
 11 12  1  0  0  0
 11 13  2  0  0  0
 13 14  1  0  0  0
 14 15  2  0  0  0
 15 16  1  0  0  0
 16 17  2  0  0  0
 16  1  1  0  0  0
  8  3  1  0  0  0
 15  9  1  0  0  0
 27 18  1  0  0  0
 27 22  1  0  0  0
 35 38  1  0  0  0
 28 32  1  0  0  0
M  END
> <minimizedAffinity>
-7.35402

> <CNNscore>
0.3490986526

> <CNNaffinity>
6.1988992691

> <CNN_VS>
2.1640274525

> <CNNaffinity_variance>
0.1208232194

$$$$



 38 42  0  0  0  0  0  0  0  0999 V2000
   -9.5906   -2.3045  -23.6904 N   0  0  0  0  0  0  0  0  0  0  0  0
   -8.2226   -2.3625  -23.0779 C   0  0  0  0  0  0  0  0  0  0  0  0
   -7.5044   -1.0938  -22.7250 C   0  0  0  0  0  0  0  0  0  0  0  0
   -6.6685    0.0845  -22.3213 C   0  0  0  0  0  0  0  0  0  0  0  0
   -6.7139    1.2986  -22.3124 O   0  0  0  0  0  0  0  0  0  0  0  0
   -5.3796   -0.4337  -21.7555 N   0  0  0  0  0  0  0  0  0  0  0  0
   -5.4189   -1.9322  -21.8094 C   0  0  0  0  0  0  0  0  0  0  0  0
   -6.7322   -2.3401  -22.4085 C   0  0  0  0  0  0  0  0  0  0  0  0
   -8.1543    0.2330  -22.9845 C   0  0  0  0  0  0  0  0  0  0  0  0
   -7.4362    1.5018  -22.6316 C   0  0  0  0  0  0  0  0  0  0  0  0
   -8.0861    2.8285  -22.8912 C   0  0  0  0  0  0  0  0  0  0  0  0
   -7.3680    4.0973  -22.5383 Cl  0  0  0  0  0  0  0  0  0  0  0  0
   -9.4542    2.8864  -23.5037 C   0  0  0  0  0  0  0  0  0  0  0  0
  -10.1723    1.6177  -23.8566 C   0  0  0  0  0  0  0  0  0  0  0  0
   -9.5224    0.2910  -23.5970 C   0  0  0  0  0  0  0  0  0  0  0  0
  -10.2405   -0.9778  -23.9500 C   0  0  0  0  0  0  0  0  0  0  0  0
  -11.6085   -0.9198  -24.5625 O   0  0  0  0  0  0  0  0  0  0  0  0
   -4.2497    0.4002  -21.2283 C   0  0  0  0  0  0  0  0  0  0  0  0
   -4.2591    0.8592  -19.8002 C   0  0  0  0  0  0  0  0  0  0  0  0
   -3.1292    1.6932  -19.2730 N   0  0  0  0  0  0  0  0  0  0  0  0
   -1.9899    2.0680  -20.1739 C   0  0  0  0  0  0  0  0  0  0  0  0
   -1.9805    1.6090  -21.6019 C   0  0  0  0  0  0  0  0  0  0  0  0
   -0.8412    1.9839  -22.5028 C   0  0  0  0  0  0  0  0  0  0  0  0
   -0.8319    1.5248  -23.9307 C   0  0  0  0  0  0  0  0  0  0  0  0
   -1.9618    0.6909  -24.4579 C   0  0  0  0  0  0  0  0  0  0  0  0
   -3.1010    0.3160  -23.5571 C   0  0  0  0  0  0  0  0  0  0  0  0
   -3.1104    0.7751  -22.1291 C   0  0  0  0  0  0  0  0  0  0  0  0
   -7.1923   -3.7474  -22.6491 N   0  0  0  0  0  0  0  0  0  0  0  0
   -6.4500   -4.8952  -22.0316 C   0  0  0  0  0  0  0  0  0  0  0  0
   -6.9101   -6.3024  -22.2721 C   0  0  0  0  0  0  0  0  0  0  0  0
   -5.2473   -4.6357  -21.1734 O   0  0  0  0  0  0  0  0  0  0  0  0
   -7.9817   -3.9177  -23.2123 H   0  0  0  0  0  0  0  0  0  0  0  0
  -10.3087   -3.5733  -24.0433 C   0  0  0  0  0  0  0  0  0  0  0  0
  -10.4000   -6.1620  -27.0501 C   0  0  0  0  0  0  0  0  0  0  0  0
  -10.5277   -5.5867  -25.6707 N   0  0  0  0  0  0  0  0  0  0  0  0
  -10.1809   -4.1486  -25.4227 C   0  0  0  0  0  0  0  0  0  0  0  0
   -9.7064   -3.2856  -26.5542 O   0  0  0  0  0  0  0  0  0  0  0  0
  -10.8391   -6.1531  -24.9280 H   0  0  0  0  0  0  0  0  0  0  0  0
 34 35  1  0  0  0
 35 36  1  0  0  0
 36 37  2  0  0  0
 36 33  1  0  0  0
 33  1  1  0  0  0
  1  2  1  0  0  0
  3  2  1  0  0  0
  3  4  1  0  0  0
  4  5  2  0  0  0
  4  6  1  0  0  0
  6 18  1  0  0  0
 18 19  2  0  0  0
 19 20  1  0  0  0
 20 21  2  0  0  0
 21 22  1  0  0  0
 22 23  2  0  0  0
 23 24  1  0  0  0
 24 25  2  0  0  0
 25 26  1  0  0  0
 26 27  2  0  0  0
  6  7  1  0  0  0
  7  8  1  0  0  0
  8 28  1  0  0  0
 28 29  1  0  0  0
 29 30  1  0  0  0
 29 31  2  0  0  0
  3  9  1  0  0  0
  9 10  2  0  0  0
 10 11  1  0  0  0
 11 12  1  0  0  0
 11 13  2  0  0  0
 13 14  1  0  0  0
 14 15  2  0  0  0
 15 16  1  0  0  0
 16 17  2  0  0  0
 16  1  1  0  0  0
  8  3  1  0  0  0
 15  9  1  0  0  0
 27 18  1  0  0  0
 27 22  1  0  0  0
 35 38  1  0  0  0
 28 32  1  0  0  0
M  END
> <minimizedAffinity>
-7.83568

> <CNNscore>
0.3191400766

> <CNNaffinity>
6.1433057785

> <CNN_VS>
1.9605751038

> <CNNaffinity_variance>
0.0711445287

$$$$



 38 42  0  0  0  0  0  0  0  0999 V2000
   -9.1525    2.6826  -24.6145 N   0  0  0  0  0  0  0  0  0  0  0  0
   -8.2417    1.4945  -24.7095 C   0  0  0  0  0  0  0  0  0  0  0  0
   -8.7554    0.1267  -24.3703 C   0  0  0  0  0  0  0  0  0  0  0  0
   -9.1254   -1.2946  -24.0650 C   0  0  0  0  0  0  0  0  0  0  0  0
  -10.0811   -1.9495  -23.6989 O   0  0  0  0  0  0  0  0  0  0  0  0
   -7.9134   -2.1484  -24.2932 N   0  0  0  0  0  0  0  0  0  0  0  0
   -6.7943   -1.2548  -24.7396 C   0  0  0  0  0  0  0  0  0  0  0  0
   -7.3148    0.1512  -24.7873 C   0  0  0  0  0  0  0  0  0  0  0  0
  -10.1800   -0.0532  -23.9362 C   0  0  0  0  0  0  0  0  0  0  0  0
  -10.6937   -1.4210  -23.5971 C   0  0  0  0  0  0  0  0  0  0  0  0
  -12.1182   -1.6008  -23.1631 C   0  0  0  0  0  0  0  0  0  0  0  0
  -12.6320   -2.9687  -22.8239 Cl  0  0  0  0  0  0  0  0  0  0  0  0
  -13.0290   -0.4128  -23.0681 C   0  0  0  0  0  0  0  0  0  0  0  0
  -12.5153    0.9551  -23.4072 C   0  0  0  0  0  0  0  0  0  0  0  0
  -11.0908    1.1349  -23.8413 C   0  0  0  0  0  0  0  0  0  0  0  0
  -10.5770    2.5028  -24.1805 C   0  0  0  0  0  0  0  0  0  0  0  0
  -11.4878    3.6908  -24.0855 O   0  0  0  0  0  0  0  0  0  0  0  0
   -7.8344   -3.6347  -24.1076 C   0  0  0  0  0  0  0  0  0  0  0  0
   -7.2464   -4.2034  -22.8503 C   0  0  0  0  0  0  0  0  0  0  0  0
   -7.1674   -5.6897  -22.6647 N   0  0  0  0  0  0  0  0  0  0  0  0
   -7.6763   -6.6075  -23.7365 C   0  0  0  0  0  0  0  0  0  0  0  0
   -8.2642   -6.0388  -24.9938 C   0  0  0  0  0  0  0  0  0  0  0  0
   -8.7731   -6.9566  -26.0657 C   0  0  0  0  0  0  0  0  0  0  0  0
   -9.3611   -6.3879  -27.3230 C   0  0  0  0  0  0  0  0  0  0  0  0
   -9.4401   -4.9015  -27.5086 C   0  0  0  0  0  0  0  0  0  0  0  0
   -8.9312   -3.9838  -26.4368 C   0  0  0  0  0  0  0  0  0  0  0  0
   -8.3433   -4.5525  -25.1794 C   0  0  0  0  0  0  0  0  0  0  0  0
   -6.5319    1.3681  -25.1825 N   0  0  0  0  0  0  0  0  0  0  0  0
   -5.2936    1.7425  -24.4235 C   0  0  0  0  0  0  0  0  0  0  0  0
   -4.5107    2.9595  -24.8187 C   0  0  0  0  0  0  0  0  0  0  0  0
   -4.8380    0.8999  -23.2691 O   0  0  0  0  0  0  0  0  0  0  0  0
   -6.8309    1.9212  -25.9402 H   0  0  0  0  0  0  0  0  0  0  0  0
   -8.6387    4.0505  -24.9537 C   0  0  0  0  0  0  0  0  0  0  0  0
   -6.6925    5.9792  -22.0827 C   0  0  0  0  0  0  0  0  0  0  0  0
   -6.9978    5.0000  -23.1773 N   0  0  0  0  0  0  0  0  0  0  0  0
   -8.3335    5.0296  -23.8591 C   0  0  0  0  0  0  0  0  0  0  0  0
   -9.3640    6.0385  -23.4464 O   0  0  0  0  0  0  0  0  0  0  0  0
   -6.3214    4.3379  -23.4482 H   0  0  0  0  0  0  0  0  0  0  0  0
 34 35  1  0  0  0
 35 36  1  0  0  0
 36 37  2  0  0  0
 36 33  1  0  0  0
 33  1  1  0  0  0
  1  2  1  0  0  0
  3  2  1  0  0  0
  3  4  1  0  0  0
  4  5  2  0  0  0
  4  6  1  0  0  0
  6 18  1  0  0  0
 18 19  2  0  0  0
 19 20  1  0  0  0
 20 21  2  0  0  0
 21 22  1  0  0  0
 22 23  2  0  0  0
 23 24  1  0  0  0
 24 25  2  0  0  0
 25 26  1  0  0  0
 26 27  2  0  0  0
  6  7  1  0  0  0
  7  8  1  0  0  0
  8 28  1  0  0  0
 28 29  1  0  0  0
 29 30  1  0  0  0
 29 31  2  0  0  0
  3  9  1  0  0  0
  9 10  2  0  0  0
 10 11  1  0  0  0
 11 12  1  0  0  0
 11 13  2  0  0  0
 13 14  1  0  0  0
 14 15  2  0  0  0
 15 16  1  0  0  0
 16 17  2  0  0  0
 16  1  1  0  0  0
  8  3  1  0  0  0
 15  9  1  0  0  0
 27 18  1  0  0  0
 27 22  1  0  0  0
 35 38  1  0  0  0
 28 32  1  0  0  0
M  END
> <minimizedAffinity>
-7.30570

> <CNNscore>
0.3096752763

> <CNNaffinity>
6.2393212318

> <CNN_VS>
1.9321634769

> <CNNaffinity_variance>
0.1889331192

$$$$



 38 42  0  0  0  0  0  0  0  0999 V2000
  -11.5439    3.9739  -24.0342 N   0  0  0  0  0  0  0  0  0  0  0  0
  -10.1615    3.4000  -23.9365 C   0  0  0  0  0  0  0  0  0  0  0  0
   -9.9745    1.9341  -23.6795 C   0  0  0  0  0  0  0  0  0  0  0  0
   -9.6329    0.4954  -23.4276 C   0  0  0  0  0  0  0  0  0  0  0  0
  -10.1814   -0.5723  -23.2389 O   0  0  0  0  0  0  0  0  0  0  0  0
   -8.1382    0.3702  -23.4089 N   0  0  0  0  0  0  0  0  0  0  0  0
   -7.5560    1.7316  -23.6492 C   0  0  0  0  0  0  0  0  0  0  0  0
   -8.6909    2.6981  -23.8165 C   0  0  0  0  0  0  0  0  0  0  0  0
  -11.1699    1.0420  -23.5202 C   0  0  0  0  0  0  0  0  0  0  0  0
  -10.9828   -0.4239  -23.2632 C   0  0  0  0  0  0  0  0  0  0  0  0
  -12.1782   -1.3159  -23.1040 C   0  0  0  0  0  0  0  0  0  0  0  0
  -11.9912   -2.7819  -22.8470 Cl  0  0  0  0  0  0  0  0  0  0  0  0
  -13.5606   -0.7419  -23.2017 C   0  0  0  0  0  0  0  0  0  0  0  0
  -13.7477    0.7240  -23.4587 C   0  0  0  0  0  0  0  0  0  0  0  0
  -12.5523    1.6160  -23.6180 C   0  0  0  0  0  0  0  0  0  0  0  0
  -12.7393    3.0819  -23.8750 C   0  0  0  0  0  0  0  0  0  0  0  0
  -14.1217    3.6559  -23.9727 O   0  0  0  0  0  0  0  0  0  0  0  0
   -7.3621   -0.8943  -23.1886 C   0  0  0  0  0  0  0  0  0  0  0  0
   -7.1083   -1.8280  -24.3348 C   0  0  0  0  0  0  0  0  0  0  0  0
   -6.3321   -3.0925  -24.1145 N   0  0  0  0  0  0  0  0  0  0  0  0
   -5.8097   -3.4234  -22.7479 C   0  0  0  0  0  0  0  0  0  0  0  0
   -6.0635   -2.4897  -21.6016 C   0  0  0  0  0  0  0  0  0  0  0  0
   -5.5411   -2.8206  -20.2350 C   0  0  0  0  0  0  0  0  0  0  0  0
   -5.7949   -1.8869  -19.0888 C   0  0  0  0  0  0  0  0  0  0  0  0
   -6.5711   -0.6224  -19.3091 C   0  0  0  0  0  0  0  0  0  0  0  0
   -7.0935   -0.2915  -20.6757 C   0  0  0  0  0  0  0  0  0  0  0  0
   -6.8397   -1.2252  -21.8220 C   0  0  0  0  0  0  0  0  0  0  0  0
   -8.5644    4.1702  -24.0752 N   0  0  0  0  0  0  0  0  0  0  0  0
   -7.7368    5.0240  -23.1609 C   0  0  0  0  0  0  0  0  0  0  0  0
   -7.6103    6.4961  -23.4197 C   0  0  0  0  0  0  0  0  0  0  0  0
   -7.0357    4.4057  -21.9877 O   0  0  0  0  0  0  0  0  0  0  0  0
   -9.0245    4.5759  -24.8452 H   0  0  0  0  0  0  0  0  0  0  0  0
  -11.7309    5.4399  -24.2912 C   0  0  0  0  0  0  0  0  0  0  0  0
  -13.9901    6.4335  -27.3990 C   0  0  0  0  0  0  0  0  0  0  0  0
  -13.5856    5.9568  -26.0355 N   0  0  0  0  0  0  0  0  0  0  0  0
  -12.1354    5.9167  -25.6547 C   0  0  0  0  0  0  0  0  0  0  0  0
  -11.0895    6.3534  -26.6374 O   0  0  0  0  0  0  0  0  0  0  0  0
  -14.2720    5.6702  -25.3906 H   0  0  0  0  0  0  0  0  0  0  0  0
 34 35  1  0  0  0
 35 36  1  0  0  0
 36 37  2  0  0  0
 36 33  1  0  0  0
 33  1  1  0  0  0
  1  2  1  0  0  0
  3  2  1  0  0  0
  3  4  1  0  0  0
  4  5  2  0  0  0
  4  6  1  0  0  0
  6 18  1  0  0  0
 18 19  2  0  0  0
 19 20  1  0  0  0
 20 21  2  0  0  0
 21 22  1  0  0  0
 22 23  2  0  0  0
 23 24  1  0  0  0
 24 25  2  0  0  0
 25 26  1  0  0  0
 26 27  2  0  0  0
  6  7  1  0  0  0
  7  8  1  0  0  0
  8 28  1  0  0  0
 28 29  1  0  0  0
 29 30  1  0  0  0
 29 31  2  0  0  0
  3  9  1  0  0  0
  9 10  2  0  0  0
 10 11  1  0  0  0
 11 12  1  0  0  0
 11 13  2  0  0  0
 13 14  1  0  0  0
 14 15  2  0  0  0
 15 16  1  0  0  0
 16 17  2  0  0  0
 16  1  1  0  0  0
  8  3  1  0  0  0
 15  9  1  0  0  0
 27 18  1  0  0  0
 27 22  1  0  0  0
 35 38  1  0  0  0
 28 32  1  0  0  0
M  END
> <minimizedAffinity>
-8.38167

> <CNNscore>
0.3012214005

> <CNNaffinity>
6.2401261330

> <CNN_VS>
1.8796595335

> <CNNaffinity_variance>
0.1268761754

$$$$



 38 42  0  0  0  0  0  0  0  0999 V2000
   -6.7647   -0.4109  -22.4225 N   0  0  0  0  0  0  0  0  0  0  0  0
   -7.1288    0.9826  -22.8416 C   0  0  0  0  0  0  0  0  0  0  0  0
   -8.5446    1.3076  -23.2156 C   0  0  0  0  0  0  0  0  0  0  0  0
   -9.9111    1.7794  -23.6155 C   0  0  0  0  0  0  0  0  0  0  0  0
  -11.0418    1.3538  -23.7452 O   0  0  0  0  0  0  0  0  0  0  0  0
   -9.8171    3.2373  -23.9554 N   0  0  0  0  0  0  0  0  0  0  0  0
   -8.3924    3.6666  -23.7657 C   0  0  0  0  0  0  0  0  0  0  0  0
   -7.6060    2.4740  -23.3084 C   0  0  0  0  0  0  0  0  0  0  0  0
   -9.5964    0.2391  -23.1704 C   0  0  0  0  0  0  0  0  0  0  0  0
  -11.0122    0.5640  -23.5443 C   0  0  0  0  0  0  0  0  0  0  0  0
  -12.0640   -0.5044  -23.4991 C   0  0  0  0  0  0  0  0  0  0  0  0
  -13.4799   -0.1795  -23.8730 Cl  0  0  0  0  0  0  0  0  0  0  0  0
  -11.6999   -1.8979  -23.0800 C   0  0  0  0  0  0  0  0  0  0  0  0
  -10.2841   -2.2229  -22.7060 C   0  0  0  0  0  0  0  0  0  0  0  0
   -9.2324   -1.1544  -22.7512 C   0  0  0  0  0  0  0  0  0  0  0  0
   -7.8165   -1.4794  -22.3773 C   0  0  0  0  0  0  0  0  0  0  0  0
   -7.4525   -2.8729  -21.9582 O   0  0  0  0  0  0  0  0  0  0  0  0
  -10.9491    4.1123  -24.4061 C   0  0  0  0  0  0  0  0  0  0  0  0
  -11.8895    4.7013  -23.3968 C   0  0  0  0  0  0  0  0  0  0  0  0
  -13.0214    5.5763  -23.8474 N   0  0  0  0  0  0  0  0  0  0  0  0
  -13.2129    5.8624  -25.3074 C   0  0  0  0  0  0  0  0  0  0  0  0
  -12.2725    5.2734  -26.3167 C   0  0  0  0  0  0  0  0  0  0  0  0
  -12.4640    5.5594  -27.7767 C   0  0  0  0  0  0  0  0  0  0  0  0
  -11.5235    4.9704  -28.7859 C   0  0  0  0  0  0  0  0  0  0  0  0
  -10.3916    4.0954  -28.3353 C   0  0  0  0  0  0  0  0  0  0  0  0
  -10.2001    3.8094  -26.8754 C   0  0  0  0  0  0  0  0  0  0  0  0
  -11.1405    4.3984  -25.8660 C   0  0  0  0  0  0  0  0  0  0  0  0
   -6.1385    2.4516  -22.9984 N   0  0  0  0  0  0  0  0  0  0  0  0
   -5.4911    3.6383  -22.3485 C   0  0  0  0  0  0  0  0  0  0  0  0
   -4.0237    3.6160  -22.0384 C   0  0  0  0  0  0  0  0  0  0  0  0
   -6.3112    4.8475  -22.0085 O   0  0  0  0  0  0  0  0  0  0  0  0
   -5.6003    1.6580  -23.2215 H   0  0  0  0  0  0  0  0  0  0  0  0
   -5.3489   -0.7359  -22.0486 C   0  0  0  0  0  0  0  0  0  0  0  0
   -5.0001    0.0645  -18.1772 C   0  0  0  0  0  0  0  0  0  0  0  0
   -5.5636   -0.4257  -19.4780 N   0  0  0  0  0  0  0  0  0  0  0  0
   -4.7854   -0.2458  -20.7477 C   0  0  0  0  0  0  0  0  0  0  0  0
   -3.4437    0.4243  -20.7165 O   0  0  0  0  0  0  0  0  0  0  0  0
   -6.4441   -0.8654  -19.4985 H   0  0  0  0  0  0  0  0  0  0  0  0
 34 35  1  0  0  0
 35 36  1  0  0  0
 36 37  2  0  0  0
 36 33  1  0  0  0
 33  1  1  0  0  0
  1  2  1  0  0  0
  3  2  1  0  0  0
  3  4  1  0  0  0
  4  5  2  0  0  0
  4  6  1  0  0  0
  6 18  1  0  0  0
 18 19  2  0  0  0
 19 20  1  0  0  0
 20 21  2  0  0  0
 21 22  1  0  0  0
 22 23  2  0  0  0
 23 24  1  0  0  0
 24 25  2  0  0  0
 25 26  1  0  0  0
 26 27  2  0  0  0
  6  7  1  0  0  0
  7  8  1  0  0  0
  8 28  1  0  0  0
 28 29  1  0  0  0
 29 30  1  0  0  0
 29 31  2  0  0  0
  3  9  1  0  0  0
  9 10  2  0  0  0
 10 11  1  0  0  0
 11 12  1  0  0  0
 11 13  2  0  0  0
 13 14  1  0  0  0
 14 15  2  0  0  0
 15 16  1  0  0  0
 16 17  2  0  0  0
 16  1  1  0  0  0
  8  3  1  0  0  0
 15  9  1  0  0  0
 27 18  1  0  0  0
 27 22  1  0  0  0
 35 38  1  0  0  0
 28 32  1  0  0  0
M  END
> <minimizedAffinity>
-8.26822

> <CNNscore>
0.2249623537

> <CNNaffinity>
5.9819884300

> <CNN_VS>
1.3457221985

> <CNNaffinity_variance>
0.1891080290

$$$$



 38 42  0  0  0  0  0  0  0  0999 V2000
   -7.2499   -4.6284  -22.7926 N   0  0  0  0  0  0  0  0  0  0  0  0
   -8.1448   -3.6755  -23.5282 C   0  0  0  0  0  0  0  0  0  0  0  0
   -7.9900   -2.1967  -23.3301 C   0  0  0  0  0  0  0  0  0  0  0  0
   -7.9534   -0.7003  -23.2338 C   0  0  0  0  0  0  0  0  0  0  0  0
   -7.3410    0.1811  -22.6643 O   0  0  0  0  0  0  0  0  0  0  0  0
   -9.0194   -0.1516  -24.1353 N   0  0  0  0  0  0  0  0  0  0  0  0
   -9.7149   -1.3089  -24.7887 C   0  0  0  0  0  0  0  0  0  0  0  0
   -9.0786   -2.5729  -24.2910 C   0  0  0  0  0  0  0  0  0  0  0  0
   -6.9403   -1.6709  -22.3964 C   0  0  0  0  0  0  0  0  0  0  0  0
   -6.7855   -0.1921  -22.1984 C   0  0  0  0  0  0  0  0  0  0  0  0
   -5.7358    0.3337  -21.2648 C   0  0  0  0  0  0  0  0  0  0  0  0
   -5.5810    1.8125  -21.0666 Cl  0  0  0  0  0  0  0  0  0  0  0  0
   -4.8409   -0.6193  -20.5292 C   0  0  0  0  0  0  0  0  0  0  0  0
   -4.9957   -2.0980  -20.7273 C   0  0  0  0  0  0  0  0  0  0  0  0
   -6.0454   -2.6238  -21.6609 C   0  0  0  0  0  0  0  0  0  0  0  0
   -6.2002   -4.1027  -21.8590 C   0  0  0  0  0  0  0  0  0  0  0  0
   -5.3053   -5.0556  -21.1235 O   0  0  0  0  0  0  0  0  0  0  0  0
   -9.3347    1.2997  -24.3462 C   0  0  0  0  0  0  0  0  0  0  0  0
   -8.2719    2.2332  -24.8455 C   0  0  0  0  0  0  0  0  0  0  0  0
   -8.5871    3.6844  -25.0564 N   0  0  0  0  0  0  0  0  0  0  0  0
   -9.9651    4.2022  -24.7682 C   0  0  0  0  0  0  0  0  0  0  0  0
  -11.0279    3.2687  -24.2690 C   0  0  0  0  0  0  0  0  0  0  0  0
  -12.4059    3.7865  -23.9807 C   0  0  0  0  0  0  0  0  0  0  0  0
  -13.4686    2.8529  -23.4815 C   0  0  0  0  0  0  0  0  0  0  0  0
  -13.1534    1.4017  -23.2705 C   0  0  0  0  0  0  0  0  0  0  0  0
  -11.7754    0.8839  -23.5588 C   0  0  0  0  0  0  0  0  0  0  0  0
  -10.7126    1.8174  -24.0580 C   0  0  0  0  0  0  0  0  0  0  0  0
   -9.4635   -3.9681  -24.6852 N   0  0  0  0  0  0  0  0  0  0  0  0
   -9.6428   -4.3159  -26.1331 C   0  0  0  0  0  0  0  0  0  0  0  0
  -10.0277   -5.7111  -26.5273 C   0  0  0  0  0  0  0  0  0  0  0  0
   -9.4373   -3.2685  -27.1871 O   0  0  0  0  0  0  0  0  0  0  0  0
   -9.5984   -4.6555  -23.9934 H   0  0  0  0  0  0  0  0  0  0  0  0
   -7.4047   -6.1073  -22.9908 C   0  0  0  0  0  0  0  0  0  0  0  0
   -4.3501   -8.1178  -24.5327 C   0  0  0  0  0  0  0  0  0  0  0  0
   -5.2192   -7.3985  -23.5440 N   0  0  0  0  0  0  0  0  0  0  0  0
   -6.5356   -6.8265  -23.9794 C   0  0  0  0  0  0  0  0  0  0  0  0
   -6.9832   -6.9738  -25.4036 O   0  0  0  0  0  0  0  0  0  0  0  0
   -4.9255   -7.3019  -22.6093 H   0  0  0  0  0  0  0  0  0  0  0  0
 34 35  1  0  0  0
 35 36  1  0  0  0
 36 37  2  0  0  0
 36 33  1  0  0  0
 33  1  1  0  0  0
  1  2  1  0  0  0
  3  2  1  0  0  0
  3  4  1  0  0  0
  4  5  2  0  0  0
  4  6  1  0  0  0
  6 18  1  0  0  0
 18 19  2  0  0  0
 19 20  1  0  0  0
 20 21  2  0  0  0
 21 22  1  0  0  0
 22 23  2  0  0  0
 23 24  1  0  0  0
 24 25  2  0  0  0
 25 26  1  0  0  0
 26 27  2  0  0  0
  6  7  1  0  0  0
  7  8  1  0  0  0
  8 28  1  0  0  0
 28 29  1  0  0  0
 29 30  1  0  0  0
 29 31  2  0  0  0
  3  9  1  0  0  0
  9 10  2  0  0  0
 10 11  1  0  0  0
 11 12  1  0  0  0
 11 13  2  0  0  0
 13 14  1  0  0  0
 14 15  2  0  0  0
 15 16  1  0  0  0
 16 17  2  0  0  0
 16  1  1  0  0  0
  8  3  1  0  0  0
 15  9  1  0  0  0
 27 18  1  0  0  0
 27 22  1  0  0  0
 35 38  1  0  0  0
 28 32  1  0  0  0
M  END
> <minimizedAffinity>
-8.05231

> <CNNscore>
0.1858323961

> <CNNaffinity>
6.0522451401

> <CNN_VS>
1.1247031689

> <CNNaffinity_variance>
0.1561429054

$$$$
