


 40 44  0  0  0  0  0  0  0  0999 V2000
   -7.9429   -1.3144  -23.2297 N   0  0  0  0  0  0  0  0  0  0  0  0
   -8.1880    0.1528  -23.4229 C   0  0  0  0  0  0  0  0  0  0  0  0
   -9.5903    0.6852  -23.4241 C   0  0  0  0  0  0  0  0  0  0  0  0
  -10.9298    1.3596  -23.4486 C   0  0  0  0  0  0  0  0  0  0  0  0
  -12.1102    1.0890  -23.3488 O   0  0  0  0  0  0  0  0  0  0  0  0
  -10.7063    2.8268  -23.6663 N   0  0  0  0  0  0  0  0  0  0  0  0
   -9.2284    3.0591  -23.7764 C   0  0  0  0  0  0  0  0  0  0  0  0
   -8.5388    1.7355  -23.6267 C   0  0  0  0  0  0  0  0  0  0  0  0
  -10.7476   -0.2496  -23.2323 C   0  0  0  0  0  0  0  0  0  0  0  0
  -12.1499    0.2828  -23.2335 C   0  0  0  0  0  0  0  0  0  0  0  0
  -13.3072   -0.6520  -23.0417 C   0  0  0  0  0  0  0  0  0  0  0  0
  -14.7096   -0.1196  -23.0430 F   0  0  0  0  0  0  0  0  0  0  0  0
  -13.0622   -2.1192  -22.8485 C   0  0  0  0  0  0  0  0  0  0  0  0
  -11.6599   -2.6516  -22.8473 C   0  0  0  0  0  0  0  0  0  0  0  0
  -10.5026   -1.7168  -23.0391 C   0  0  0  0  0  0  0  0  0  0  0  0
   -9.1002   -2.2492  -23.0379 C   0  0  0  0  0  0  0  0  0  0  0  0
   -8.8552   -3.7164  -22.8447 O   0  0  0  0  0  0  0  0  0  0  0  0
  -11.7731    3.8772  -23.7579 C   0  0  0  0  0  0  0  0  0  0  0  0
  -12.5635    4.2518  -22.5392 C   0  0  0  0  0  0  0  0  0  0  0  0
  -13.6304    5.3022  -22.6308 N   0  0  0  0  0  0  0  0  0  0  0  0
  -13.9069    5.9780  -23.9410 C   0  0  0  0  0  0  0  0  0  0  0  0
  -13.1166    5.6035  -25.1597 C   0  0  0  0  0  0  0  0  0  0  0  0
  -13.3931    6.2794  -26.4700 C   0  0  0  0  0  0  0  0  0  0  0  0
  -12.6027    5.9048  -27.6886 C   0  0  0  0  0  0  0  0  0  0  0  0
  -11.5359    4.8544  -27.5970 C   0  0  0  0  0  0  0  0  0  0  0  0
  -11.2593    4.1785  -26.2868 C   0  0  0  0  0  0  0  0  0  0  0  0
  -12.0497    4.5531  -25.0681 C   0  0  0  0  0  0  0  0  0  0  0  0
   -6.5405   -1.8468  -23.2284 C   0  0  0  0  0  0  0  0  0  0  0  0
   -5.7121   -5.4263  -21.7281 C   0  0  0  0  0  0  0  0  0  0  0  0
   -6.1059   -4.3530  -22.6992 N   0  0  0  0  0  0  0  0  0  0  0  0
   -6.1467   -2.9201  -22.2574 C   0  0  0  0  0  0  0  0  0  0  0  0
   -5.7936   -2.5605  -20.8446 O   0  0  0  0  0  0  0  0  0  0  0  0
   -6.3377   -4.5890  -23.6264 H   0  0  0  0  0  0  0  0  0  0  0  0
   -7.0575    1.5031  -23.6716 C   0  0  0  0  0  0  0  0  0  0  0  0
   -6.1122    2.6565  -23.5116 S   0  0  0  0  0  0  0  0  0  0  0  0
   -6.2870    2.5934  -22.0232 O   0  0  0  0  0  0  0  0  0  0  0  0
   -5.9373    2.7198  -25.0001 O   0  0  0  0  0  0  0  0  0  0  0  0
   -5.1667    3.8100  -23.3516 N   0  0  0  0  0  0  0  0  0  0  0  0
   -3.9573    3.6726  -22.4749 C   0  0  0  0  0  0  0  0  0  0  0  0
   -5.4306    5.1010  -24.0683 C   0  0  0  0  0  0  0  0  0  0  0  0
 29 30  1  0  0  0
 30 31  1  0  0  0
 31 32  2  0  0  0
 31 28  1  0  0  0
 28  1  1  0  0  0
  1  2  1  0  0  0
  3  2  1  0  0  0
  3  4  1  0  0  0
  4  5  2  0  0  0
  4  6  1  0  0  0
  6 18  1  0  0  0
 18 19  2  0  0  0
 19 20  1  0  0  0
 20 21  2  0  0  0
 21 22  1  0  0  0
 22 23  2  0  0  0
 23 24  1  0  0  0
 24 25  2  0  0  0
 25 26  1  0  0  0
 26 27  2  0  0  0
  6  7  1  0  0  0
  7  8  1  0  0  0
  8 34  1  0  0  0
 34 35  1  0  0  0
 35 36  2  0  0  0
 35 37  2  0  0  0
 35 38  1  0  0  0
 38 39  1  0  0  0
 38 40  1  0  0  0
  3  9  1  0  0  0
  9 10  2  0  0  0
 10 11  1  0  0  0
 11 12  1  0  0  0
 11 13  2  0  0  0
 13 14  1  0  0  0
 14 15  2  0  0  0
 15 16  1  0  0  0
 16 17  2  0  0  0
 16  1  1  0  0  0
  8  3  1  0  0  0
 15  9  1  0  0  0
 27 18  1  0  0  0
 27 22  1  0  0  0
 30 33  1  0  0  0
M  END
> <minimizedAffinity>
-7.29691

> <CNNscore>
0.5915669203

> <CNNaffinity>
6.8186941147

> <CNN_VS>
4.0337138176

> <CNNaffinity_variance>
0.1070842370

$$$$



 40 44  0  0  0  0  0  0  0  0999 V2000
   -5.5657   -5.7529  -23.4384 N   0  0  0  0  0  0  0  0  0  0  0  0
   -6.3410   -4.5981  -22.8768 C   0  0  0  0  0  0  0  0  0  0  0  0
   -7.7169   -4.2969  -23.3925 C   0  0  0  0  0  0  0  0  0  0  0  0
   -9.0959   -3.8761  -23.8065 C   0  0  0  0  0  0  0  0  0  0  0  0
   -9.9743   -4.1990  -24.5814 O   0  0  0  0  0  0  0  0  0  0  0  0
   -9.4806   -2.6792  -22.9882 N   0  0  0  0  0  0  0  0  0  0  0  0
   -8.3394   -2.3603  -22.0685 C   0  0  0  0  0  0  0  0  0  0  0  0
   -7.2494   -3.3600  -22.3184 C   0  0  0  0  0  0  0  0  0  0  0  0
   -8.3177   -5.1505  -24.4698 C   0  0  0  0  0  0  0  0  0  0  0  0
   -9.6936   -4.8493  -24.9855 C   0  0  0  0  0  0  0  0  0  0  0  0
  -10.2943   -5.7029  -26.0627 C   0  0  0  0  0  0  0  0  0  0  0  0
  -11.6703   -5.4018  -26.5785 F   0  0  0  0  0  0  0  0  0  0  0  0
   -9.5190   -6.8578  -26.6243 C   0  0  0  0  0  0  0  0  0  0  0  0
   -8.1431   -7.1590  -26.1086 C   0  0  0  0  0  0  0  0  0  0  0  0
   -7.5424   -6.3053  -25.0313 C   0  0  0  0  0  0  0  0  0  0  0  0
   -6.1664   -6.6065  -24.5156 C   0  0  0  0  0  0  0  0  0  0  0  0
   -5.3911   -7.7614  -25.0771 O   0  0  0  0  0  0  0  0  0  0  0  0
  -10.7786   -1.9325  -23.0746 C   0  0  0  0  0  0  0  0  0  0  0  0
  -12.0679   -2.6302  -22.7570 C   0  0  0  0  0  0  0  0  0  0  0  0
  -13.3659   -1.8835  -22.8433 N   0  0  0  0  0  0  0  0  0  0  0  0
  -13.3747   -0.4389  -23.2472 C   0  0  0  0  0  0  0  0  0  0  0  0
  -12.0853    0.2589  -23.5648 C   0  0  0  0  0  0  0  0  0  0  0  0
  -12.0941    1.7035  -23.9686 C   0  0  0  0  0  0  0  0  0  0  0  0
  -10.8048    2.4012  -24.2862 C   0  0  0  0  0  0  0  0  0  0  0  0
   -9.5067    1.6545  -24.1999 C   0  0  0  0  0  0  0  0  0  0  0  0
   -9.4980    0.2099  -23.7960 C   0  0  0  0  0  0  0  0  0  0  0  0
  -10.7873   -0.4879  -23.4784 C   0  0  0  0  0  0  0  0  0  0  0  0
   -4.1897   -6.0541  -22.9226 C   0  0  0  0  0  0  0  0  0  0  0  0
   -1.9052   -6.5737  -26.1259 C   0  0  0  0  0  0  0  0  0  0  0  0
   -2.9457   -6.0117  -25.2031 N   0  0  0  0  0  0  0  0  0  0  0  0
   -3.1492   -6.6161  -23.8454 C   0  0  0  0  0  0  0  0  0  0  0  0
   -2.3123   -7.7825  -23.4106 O   0  0  0  0  0  0  0  0  0  0  0  0
   -3.4949   -5.2461  -25.4885 H   0  0  0  0  0  0  0  0  0  0  0  0
   -5.9244   -3.4135  -21.6172 C   0  0  0  0  0  0  0  0  0  0  0  0
   -5.4400   -2.2273  -20.8375 S   0  0  0  0  0  0  0  0  0  0  0  0
   -5.2580   -3.0962  -19.6285 O   0  0  0  0  0  0  0  0  0  0  0  0
   -5.6221   -1.3583  -22.0466 O   0  0  0  0  0  0  0  0  0  0  0  0
   -4.9556   -1.0410  -20.0578 N   0  0  0  0  0  0  0  0  0  0  0  0
   -4.0986   -0.0051  -20.7233 C   0  0  0  0  0  0  0  0  0  0  0  0
   -5.3281   -0.8903  -18.6126 C   0  0  0  0  0  0  0  0  0  0  0  0
 29 30  1  0  0  0
 30 31  1  0  0  0
 31 32  2  0  0  0
 31 28  1  0  0  0
 28  1  1  0  0  0
  1  2  1  0  0  0
  3  2  1  0  0  0
  3  4  1  0  0  0
  4  5  2  0  0  0
  4  6  1  0  0  0
  6 18  1  0  0  0
 18 19  2  0  0  0
 19 20  1  0  0  0
 20 21  2  0  0  0
 21 22  1  0  0  0
 22 23  2  0  0  0
 23 24  1  0  0  0
 24 25  2  0  0  0
 25 26  1  0  0  0
 26 27  2  0  0  0
  6  7  1  0  0  0
  7  8  1  0  0  0
  8 34  1  0  0  0
 34 35  1  0  0  0
 35 36  2  0  0  0
 35 37  2  0  0  0
 35 38  1  0  0  0
 38 39  1  0  0  0
 38 40  1  0  0  0
  3  9  1  0  0  0
  9 10  2  0  0  0
 10 11  1  0  0  0
 11 12  1  0  0  0
 11 13  2  0  0  0
 13 14  1  0  0  0
 14 15  2  0  0  0
 15 16  1  0  0  0
 16 17  2  0  0  0
 16  1  1  0  0  0
  8  3  1  0  0  0
 15  9  1  0  0  0
 27 18  1  0  0  0
 27 22  1  0  0  0
 30 33  1  0  0  0
M  END
> <minimizedAffinity>
-6.88497

> <CNNscore>
0.5251377225

> <CNNaffinity>
6.8114690781

> <CNN_VS>
3.5769593716

> <CNNaffinity_variance>
0.1833687872

$$$$



 40 44  0  0  0  0  0  0  0  0999 V2000
   -5.9602   -4.1449  -21.6498 N   0  0  0  0  0  0  0  0  0  0  0  0
   -6.4713   -3.6017  -22.9513 C   0  0  0  0  0  0  0  0  0  0  0  0
   -6.4895   -2.1211  -23.1907 C   0  0  0  0  0  0  0  0  0  0  0  0
   -6.5682   -0.6724  -23.5714 C   0  0  0  0  0  0  0  0  0  0  0  0
   -6.3179    0.4252  -23.1140 O   0  0  0  0  0  0  0  0  0  0  0  0
   -7.1389   -0.5872  -24.9560 N   0  0  0  0  0  0  0  0  0  0  0  0
   -7.4129   -1.9834  -25.4310 C   0  0  0  0  0  0  0  0  0  0  0  0
   -7.0115   -2.9314  -24.3400 C   0  0  0  0  0  0  0  0  0  0  0  0
   -5.9966   -1.1835  -22.1285 C   0  0  0  0  0  0  0  0  0  0  0  0
   -6.0148    0.2971  -22.3679 C   0  0  0  0  0  0  0  0  0  0  0  0
   -5.5220    1.2347  -21.3058 C   0  0  0  0  0  0  0  0  0  0  0  0
   -5.5402    2.7154  -21.5451 F   0  0  0  0  0  0  0  0  0  0  0  0
   -5.0110    0.6915  -20.0043 C   0  0  0  0  0  0  0  0  0  0  0  0
   -4.9928   -0.7891  -19.7649 C   0  0  0  0  0  0  0  0  0  0  0  0
   -5.4856   -1.7266  -20.8270 C   0  0  0  0  0  0  0  0  0  0  0  0
   -5.4674   -3.2073  -20.5877 C   0  0  0  0  0  0  0  0  0  0  0  0
   -4.9564   -3.7505  -19.2862 O   0  0  0  0  0  0  0  0  0  0  0  0
   -7.3912    0.6728  -25.7297 C   0  0  0  0  0  0  0  0  0  0  0  0
   -8.6990    1.3930  -25.5843 C   0  0  0  0  0  0  0  0  0  0  0  0
   -8.9513    2.6530  -26.3580 N   0  0  0  0  0  0  0  0  0  0  0  0
   -7.8959    3.1929  -27.2770 C   0  0  0  0  0  0  0  0  0  0  0  0
   -6.5881    2.4727  -27.4224 C   0  0  0  0  0  0  0  0  0  0  0  0
   -5.5327    3.0126  -28.3415 C   0  0  0  0  0  0  0  0  0  0  0  0
   -4.2250    2.2923  -28.4867 C   0  0  0  0  0  0  0  0  0  0  0  0
   -3.9726    1.0323  -27.7131 C   0  0  0  0  0  0  0  0  0  0  0  0
   -5.0280    0.4924  -26.7940 C   0  0  0  0  0  0  0  0  0  0  0  0
   -6.3358    1.2126  -26.6487 C   0  0  0  0  0  0  0  0  0  0  0  0
   -5.9421   -5.6256  -21.4104 C   0  0  0  0  0  0  0  0  0  0  0  0
   -3.4784   -7.2642  -24.0553 C   0  0  0  0  0  0  0  0  0  0  0  0
   -4.0186   -6.3411  -23.0036 N   0  0  0  0  0  0  0  0  0  0  0  0
   -5.4019   -6.5487  -22.4621 C   0  0  0  0  0  0  0  0  0  0  0  0
   -6.2451   -7.6795  -22.9724 O   0  0  0  0  0  0  0  0  0  0  0  0
   -3.4651   -5.5989  -22.6687 H   0  0  0  0  0  0  0  0  0  0  0  0
   -7.1142   -4.4270  -24.3896 C   0  0  0  0  0  0  0  0  0  0  0  0
   -8.0132   -5.0842  -25.3945 S   0  0  0  0  0  0  0  0  0  0  0  0
   -9.2117   -4.6699  -24.5933 O   0  0  0  0  0  0  0  0  0  0  0  0
   -6.8147   -5.4985  -26.1958 O   0  0  0  0  0  0  0  0  0  0  0  0
   -8.9122   -5.7414  -26.3994 N   0  0  0  0  0  0  0  0  0  0  0  0
   -9.4912   -4.9382  -27.5263 C   0  0  0  0  0  0  0  0  0  0  0  0
   -9.2322   -7.2018  -26.2776 C   0  0  0  0  0  0  0  0  0  0  0  0
 29 30  1  0  0  0
 30 31  1  0  0  0
 31 32  2  0  0  0
 31 28  1  0  0  0
 28  1  1  0  0  0
  1  2  1  0  0  0
  3  2  1  0  0  0
  3  4  1  0  0  0
  4  5  2  0  0  0
  4  6  1  0  0  0
  6 18  1  0  0  0
 18 19  2  0  0  0
 19 20  1  0  0  0
 20 21  2  0  0  0
 21 22  1  0  0  0
 22 23  2  0  0  0
 23 24  1  0  0  0
 24 25  2  0  0  0
 25 26  1  0  0  0
 26 27  2  0  0  0
  6  7  1  0  0  0
  7  8  1  0  0  0
  8 34  1  0  0  0
 34 35  1  0  0  0
 35 36  2  0  0  0
 35 37  2  0  0  0
 35 38  1  0  0  0
 38 39  1  0  0  0
 38 40  1  0  0  0
  3  9  1  0  0  0
  9 10  2  0  0  0
 10 11  1  0  0  0
 11 12  1  0  0  0
 11 13  2  0  0  0
 13 14  1  0  0  0
 14 15  2  0  0  0
 15 16  1  0  0  0
 16 17  2  0  0  0
 16  1  1  0  0  0
  8  3  1  0  0  0
 15  9  1  0  0  0
 27 18  1  0  0  0
 27 22  1  0  0  0
 30 33  1  0  0  0
M  END
> <minimizedAffinity>
-7.07177

> <CNNscore>
0.4529130757

> <CNNaffinity>
6.7141647339

> <CNN_VS>
3.0409328938

> <CNNaffinity_variance>
0.1113834530

$$$$



 40 44  0  0  0  0  0  0  0  0999 V2000
   -9.9708   -2.1830  -23.7047 N   0  0  0  0  0  0  0  0  0  0  0  0
   -8.6047   -2.2950  -23.0952 C   0  0  0  0  0  0  0  0  0  0  0  0
   -7.8371   -1.0556  -22.7422 C   0  0  0  0  0  0  0  0  0  0  0  0
   -6.9551    0.0886  -22.3388 C   0  0  0  0  0  0  0  0  0  0  0  0
   -6.9533    1.3036  -22.3281 O   0  0  0  0  0  0  0  0  0  0  0  0
   -5.6861   -0.4801  -21.7764 N   0  0  0  0  0  0  0  0  0  0  0  0
   -5.7838   -1.9759  -21.8322 C   0  0  0  0  0  0  0  0  0  0  0  0
   -7.1132   -2.3315  -22.4291 C   0  0  0  0  0  0  0  0  0  0  0  0
   -8.4355    0.2958  -22.9985 C   0  0  0  0  0  0  0  0  0  0  0  0
   -7.6678    1.5351  -22.6455 C   0  0  0  0  0  0  0  0  0  0  0  0
   -8.2662    2.8865  -22.9019 C   0  0  0  0  0  0  0  0  0  0  0  0
   -7.4986    4.1259  -22.5488 F   0  0  0  0  0  0  0  0  0  0  0  0
   -9.6322    2.9985  -23.5113 C   0  0  0  0  0  0  0  0  0  0  0  0
  -10.3999    1.7591  -23.8644 C   0  0  0  0  0  0  0  0  0  0  0  0
   -9.8015    0.4078  -23.6080 C   0  0  0  0  0  0  0  0  0  0  0  0
  -10.5691   -0.8317  -23.9611 C   0  0  0  0  0  0  0  0  0  0  0  0
  -11.9352   -0.7197  -24.5706 O   0  0  0  0  0  0  0  0  0  0  0  0
   -4.5236    0.3085  -21.2505 C   0  0  0  0  0  0  0  0  0  0  0  0
   -4.5211    0.7825  -19.8273 C   0  0  0  0  0  0  0  0  0  0  0  0
   -3.3586    1.5711  -19.3015 N   0  0  0  0  0  0  0  0  0  0  0  0
   -2.1985    1.8858  -20.1988 C   0  0  0  0  0  0  0  0  0  0  0  0
   -2.2009    1.4118  -21.6219 C   0  0  0  0  0  0  0  0  0  0  0  0
   -1.0408    1.7265  -22.5192 C   0  0  0  0  0  0  0  0  0  0  0  0
   -1.0433    1.2525  -23.9424 C   0  0  0  0  0  0  0  0  0  0  0  0
   -2.2059    0.4638  -24.4682 C   0  0  0  0  0  0  0  0  0  0  0  0
   -3.3660    0.1492  -23.5709 C   0  0  0  0  0  0  0  0  0  0  0  0
   -3.3635    0.6232  -22.1478 C   0  0  0  0  0  0  0  0  0  0  0  0
  -10.7384   -3.4224  -24.0578 C   0  0  0  0  0  0  0  0  0  0  0  0
  -10.3477   -6.3488  -26.7098 C   0  0  0  0  0  0  0  0  0  0  0  0
  -10.6354   -5.6287  -25.4258 N   0  0  0  0  0  0  0  0  0  0  0  0
  -10.4507   -4.1425  -25.3418 C   0  0  0  0  0  0  0  0  0  0  0  0
   -9.9782   -3.3764  -26.5417 O   0  0  0  0  0  0  0  0  0  0  0  0
  -10.9455   -6.1315  -24.6383 H   0  0  0  0  0  0  0  0  0  0  0  0
   -7.6283   -3.7195  -22.6705 C   0  0  0  0  0  0  0  0  0  0  0  0
   -6.6665   -4.8455  -22.9088 S   0  0  0  0  0  0  0  0  0  0  0  0
   -7.4721   -5.2824  -24.0963 O   0  0  0  0  0  0  0  0  0  0  0  0
   -5.8608   -4.4088  -21.7213 O   0  0  0  0  0  0  0  0  0  0  0  0
   -5.7046   -5.9716  -23.1471 N   0  0  0  0  0  0  0  0  0  0  0  0
   -5.3998   -6.9435  -22.0459 C   0  0  0  0  0  0  0  0  0  0  0  0
   -5.0474   -6.1258  -24.4867 C   0  0  0  0  0  0  0  0  0  0  0  0
 29 30  1  0  0  0
 30 31  1  0  0  0
 31 32  2  0  0  0
 31 28  1  0  0  0
 28  1  1  0  0  0
  1  2  1  0  0  0
  3  2  1  0  0  0
  3  4  1  0  0  0
  4  5  2  0  0  0
  4  6  1  0  0  0
  6 18  1  0  0  0
 18 19  2  0  0  0
 19 20  1  0  0  0
 20 21  2  0  0  0
 21 22  1  0  0  0
 22 23  2  0  0  0
 23 24  1  0  0  0
 24 25  2  0  0  0
 25 26  1  0  0  0
 26 27  2  0  0  0
  6  7  1  0  0  0
  7  8  1  0  0  0
  8 34  1  0  0  0
 34 35  1  0  0  0
 35 36  2  0  0  0
 35 37  2  0  0  0
 35 38  1  0  0  0
 38 39  1  0  0  0
 38 40  1  0  0  0
  3  9  1  0  0  0
  9 10  2  0  0  0
 10 11  1  0  0  0
 11 12  1  0  0  0
 11 13  2  0  0  0
 13 14  1  0  0  0
 14 15  2  0  0  0
 15 16  1  0  0  0
 16 17  2  0  0  0
 16  1  1  0  0  0
  8  3  1  0  0  0
 15  9  1  0  0  0
 27 18  1  0  0  0
 27 22  1  0  0  0
 30 33  1  0  0  0
M  END
> <minimizedAffinity>
-7.57406

> <CNNscore>
0.3531010449

> <CNNaffinity>
6.5075531006

> <CNN_VS>
2.2978239059

> <CNNaffinity_variance>
0.2075663060

$$$$



 40 44  0  0  0  0  0  0  0  0999 V2000
   -6.0561   -1.7789  -24.9028 N   0  0  0  0  0  0  0  0  0  0  0  0
   -5.6662   -0.6588  -23.9844 C   0  0  0  0  0  0  0  0  0  0  0  0
   -4.7432    0.4203  -24.4675 C   0  0  0  0  0  0  0  0  0  0  0  0
   -3.8338    1.5636  -24.8078 C   0  0  0  0  0  0  0  0  0  0  0  0
   -3.1764    1.9847  -25.7389 O   0  0  0  0  0  0  0  0  0  0  0  0
   -3.7229    2.4437  -23.5983 N   0  0  0  0  0  0  0  0  0  0  0  0
   -4.5637    1.8444  -22.5102 C   0  0  0  0  0  0  0  0  0  0  0  0
   -5.1943    0.5938  -23.0475 C   0  0  0  0  0  0  0  0  0  0  0  0
   -4.2099    0.3794  -25.8689 C   0  0  0  0  0  0  0  0  0  0  0  0
   -3.2868    1.4585  -26.3520 C   0  0  0  0  0  0  0  0  0  0  0  0
   -2.7536    1.4175  -27.7533 C   0  0  0  0  0  0  0  0  0  0  0  0
   -1.8305    2.4967  -28.2365 F   0  0  0  0  0  0  0  0  0  0  0  0
   -3.1434    0.2974  -28.6717 C   0  0  0  0  0  0  0  0  0  0  0  0
   -4.0665   -0.7818  -28.1886 C   0  0  0  0  0  0  0  0  0  0  0  0
   -4.5997   -0.7408  -26.7872 C   0  0  0  0  0  0  0  0  0  0  0  0
   -5.5228   -1.8199  -26.3041 C   0  0  0  0  0  0  0  0  0  0  0  0
   -5.9127   -2.9401  -27.2225 O   0  0  0  0  0  0  0  0  0  0  0  0
   -2.9133    3.7022  -23.4948 C   0  0  0  0  0  0  0  0  0  0  0  0
   -3.5662    5.0344  -23.7164 C   0  0  0  0  0  0  0  0  0  0  0  0
   -2.7566    6.2929  -23.6130 N   0  0  0  0  0  0  0  0  0  0  0  0
   -1.2941    6.2192  -23.2880 C   0  0  0  0  0  0  0  0  0  0  0  0
   -0.6412    4.8871  -23.0665 C   0  0  0  0  0  0  0  0  0  0  0  0
    0.8214    4.8134  -22.7415 C   0  0  0  0  0  0  0  0  0  0  0  0
    1.4742    3.4812  -22.5200 C   0  0  0  0  0  0  0  0  0  0  0  0
    0.6646    2.2227  -22.6234 C   0  0  0  0  0  0  0  0  0  0  0  0
   -0.7979    2.2964  -22.9483 C   0  0  0  0  0  0  0  0  0  0  0  0
   -1.4508    3.6286  -23.1699 C   0  0  0  0  0  0  0  0  0  0  0  0
   -6.9792   -2.8581  -24.4196 C   0  0  0  0  0  0  0  0  0  0  0  0
   -5.4953   -6.4452  -23.5946 C   0  0  0  0  0  0  0  0  0  0  0  0
   -6.0418   -5.2806  -24.3659 N   0  0  0  0  0  0  0  0  0  0  0  0
   -6.4327   -4.0227  -23.6483 C   0  0  0  0  0  0  0  0  0  0  0  0
   -6.2771   -3.9295  -22.1593 O   0  0  0  0  0  0  0  0  0  0  0  0
   -6.1440   -5.3418  -25.3432 H   0  0  0  0  0  0  0  0  0  0  0  0
   -6.1144   -0.3223  -22.2965 C   0  0  0  0  0  0  0  0  0  0  0  0
   -5.8978   -0.5680  -20.8327 S   0  0  0  0  0  0  0  0  0  0  0  0
   -4.5905   -1.2369  -21.1384 O   0  0  0  0  0  0  0  0  0  0  0  0
   -7.2052    0.1009  -20.5270 O   0  0  0  0  0  0  0  0  0  0  0  0
   -5.6813   -0.8137  -19.3689 N   0  0  0  0  0  0  0  0  0  0  0  0
   -5.0443    0.2440  -18.5170 C   0  0  0  0  0  0  0  0  0  0  0  0
   -6.1018   -2.1170  -18.7569 C   0  0  0  0  0  0  0  0  0  0  0  0
 29 30  1  0  0  0
 30 31  1  0  0  0
 31 32  2  0  0  0
 31 28  1  0  0  0
 28  1  1  0  0  0
  1  2  1  0  0  0
  3  2  1  0  0  0
  3  4  1  0  0  0
  4  5  2  0  0  0
  4  6  1  0  0  0
  6 18  1  0  0  0
 18 19  2  0  0  0
 19 20  1  0  0  0
 20 21  2  0  0  0
 21 22  1  0  0  0
 22 23  2  0  0  0
 23 24  1  0  0  0
 24 25  2  0  0  0
 25 26  1  0  0  0
 26 27  2  0  0  0
  6  7  1  0  0  0
  7  8  1  0  0  0
  8 34  1  0  0  0
 34 35  1  0  0  0
 35 36  2  0  0  0
 35 37  2  0  0  0
 35 38  1  0  0  0
 38 39  1  0  0  0
 38 40  1  0  0  0
  3  9  1  0  0  0
  9 10  2  0  0  0
 10 11  1  0  0  0
 11 12  1  0  0  0
 11 13  2  0  0  0
 13 14  1  0  0  0
 14 15  2  0  0  0
 15 16  1  0  0  0
 16 17  2  0  0  0
 16  1  1  0  0  0
  8  3  1  0  0  0
 15  9  1  0  0  0
 27 18  1  0  0  0
 27 22  1  0  0  0
 30 33  1  0  0  0
M  END
> <minimizedAffinity>
-4.27257

> <CNNscore>
0.3362751603

> <CNNaffinity>
6.4345827103

> <CNN_VS>
2.1637902260

> <CNNaffinity_variance>
0.5187072754

$$$$



 40 44  0  0  0  0  0  0  0  0999 V2000
   -9.5043    2.5115  -24.5154 N   0  0  0  0  0  0  0  0  0  0  0  0
   -8.5534    1.3570  -24.6290 C   0  0  0  0  0  0  0  0  0  0  0  0
   -9.0186   -0.0323  -24.3077 C   0  0  0  0  0  0  0  0  0  0  0  0
   -9.3385   -1.4695  -24.0213 C   0  0  0  0  0  0  0  0  0  0  0  0
  -10.2700   -2.1621  -23.6621 O   0  0  0  0  0  0  0  0  0  0  0  0
   -8.0984   -2.2777  -24.2643 N   0  0  0  0  0  0  0  0  0  0  0  0
   -7.0122   -1.3400  -24.7010 C   0  0  0  0  0  0  0  0  0  0  0  0
   -7.5809    0.0477  -24.7278 C   0  0  0  0  0  0  0  0  0  0  0  0
  -10.4349   -0.2672  -23.8727 C   0  0  0  0  0  0  0  0  0  0  0  0
  -10.9001   -1.6565  -23.5514 C   0  0  0  0  0  0  0  0  0  0  0  0
  -12.3163   -1.8914  -23.1165 C   0  0  0  0  0  0  0  0  0  0  0  0
  -12.7816   -3.2807  -22.7951 F   0  0  0  0  0  0  0  0  0  0  0  0
  -13.2672   -0.7369  -23.0028 C   0  0  0  0  0  0  0  0  0  0  0  0
  -12.8020    0.6524  -23.3241 C   0  0  0  0  0  0  0  0  0  0  0  0
  -11.3858    0.8873  -23.7591 C   0  0  0  0  0  0  0  0  0  0  0  0
  -10.9205    2.2767  -24.0804 C   0  0  0  0  0  0  0  0  0  0  0  0
  -11.8714    3.4312  -23.9667 O   0  0  0  0  0  0  0  0  0  0  0  0
   -7.9676   -3.7629  -24.0996 C   0  0  0  0  0  0  0  0  0  0  0  0
   -7.3762   -4.3290  -22.8427 C   0  0  0  0  0  0  0  0  0  0  0  0
   -7.2454   -5.8141  -22.6780 N   0  0  0  0  0  0  0  0  0  0  0  0
   -7.7061   -6.7333  -23.7702 C   0  0  0  0  0  0  0  0  0  0  0  0
   -8.2975   -6.1672  -25.0272 C   0  0  0  0  0  0  0  0  0  0  0  0
   -8.7581   -7.0864  -26.1194 C   0  0  0  0  0  0  0  0  0  0  0  0
   -9.3496   -6.5203  -27.3763 C   0  0  0  0  0  0  0  0  0  0  0  0
   -9.4803   -5.0351  -27.5410 C   0  0  0  0  0  0  0  0  0  0  0  0
   -9.0197   -4.1160  -26.4488 C   0  0  0  0  0  0  0  0  0  0  0  0
   -8.4283   -4.6821  -25.1919 C   0  0  0  0  0  0  0  0  0  0  0  0
   -9.0390    3.9009  -24.8367 C   0  0  0  0  0  0  0  0  0  0  0  0
   -6.8287    5.4905  -21.9492 C   0  0  0  0  0  0  0  0  0  0  0  0
   -7.2773    4.5763  -23.0505 N   0  0  0  0  0  0  0  0  0  0  0  0
   -8.5903    4.8151  -23.7353 C   0  0  0  0  0  0  0  0  0  0  0  0
   -9.4548    5.9681  -23.3188 O   0  0  0  0  0  0  0  0  0  0  0  0
   -6.7100    3.8196  -23.3240 H   0  0  0  0  0  0  0  0  0  0  0  0
   -6.8416    1.2963  -25.1079 C   0  0  0  0  0  0  0  0  0  0  0  0
   -5.5796    1.6693  -24.3882 S   0  0  0  0  0  0  0  0  0  0  0  0
   -5.5991    0.3519  -23.6712 O   0  0  0  0  0  0  0  0  0  0  0  0
   -5.5600    2.9867  -25.1053 O   0  0  0  0  0  0  0  0  0  0  0  0
   -4.3175    2.0423  -23.6685 N   0  0  0  0  0  0  0  0  0  0  0  0
   -3.5376    0.9952  -22.9301 C   0  0  0  0  0  0  0  0  0  0  0  0
   -3.8353    3.4626  -23.6872 C   0  0  0  0  0  0  0  0  0  0  0  0
 29 30  1  0  0  0
 30 31  1  0  0  0
 31 32  2  0  0  0
 31 28  1  0  0  0
 28  1  1  0  0  0
  1  2  1  0  0  0
  3  2  1  0  0  0
  3  4  1  0  0  0
  4  5  2  0  0  0
  4  6  1  0  0  0
  6 18  1  0  0  0
 18 19  2  0  0  0
 19 20  1  0  0  0
 20 21  2  0  0  0
 21 22  1  0  0  0
 22 23  2  0  0  0
 23 24  1  0  0  0
 24 25  2  0  0  0
 25 26  1  0  0  0
 26 27  2  0  0  0
  6  7  1  0  0  0
  7  8  1  0  0  0
  8 34  1  0  0  0
 34 35  1  0  0  0
 35 36  2  0  0  0
 35 37  2  0  0  0
 35 38  1  0  0  0
 38 39  1  0  0  0
 38 40  1  0  0  0
  3  9  1  0  0  0
  9 10  2  0  0  0
 10 11  1  0  0  0
 11 12  1  0  0  0
 11 13  2  0  0  0
 13 14  1  0  0  0
 14 15  2  0  0  0
 15 16  1  0  0  0
 16 17  2  0  0  0
 16  1  1  0  0  0
  8  3  1  0  0  0
 15  9  1  0  0  0
 27 18  1  0  0  0
 27 22  1  0  0  0
 30 33  1  0  0  0
M  END
> <minimizedAffinity>
-7.24023

> <CNNscore>
0.3203220665

> <CNNaffinity>
6.5711297989

> <CNN_VS>
2.1048779488

> <CNNaffinity_variance>
0.0400317833

$$$$



 40 44  0  0  0  0  0  0  0  0999 V2000
   -6.0010   -4.1357  -21.6526 N   0  0  0  0  0  0  0  0  0  0  0  0
   -6.5528   -3.5853  -22.9342 C   0  0  0  0  0  0  0  0  0  0  0  0
   -6.5796   -2.1033  -23.1640 C   0  0  0  0  0  0  0  0  0  0  0  0
   -6.6713   -0.6524  -23.5334 C   0  0  0  0  0  0  0  0  0  0  0  0
   -6.4076    0.4426  -23.0775 O   0  0  0  0  0  0  0  0  0  0  0  0
   -7.2850   -0.5595  -24.8989 N   0  0  0  0  0  0  0  0  0  0  0  0
   -7.5726   -1.9530  -25.3735 C   0  0  0  0  0  0  0  0  0  0  0  0
   -7.1367   -2.9071  -24.3013 C   0  0  0  0  0  0  0  0  0  0  0  0
   -6.0546   -1.1716  -22.1121 C   0  0  0  0  0  0  0  0  0  0  0  0
   -6.0814    0.3104  -22.3419 C   0  0  0  0  0  0  0  0  0  0  0  0
   -5.5563    1.2420  -21.2901 C   0  0  0  0  0  0  0  0  0  0  0  0
   -5.5831    2.7242  -21.5198 F   0  0  0  0  0  0  0  0  0  0  0  0
   -5.0045    0.6916  -20.0085 C   0  0  0  0  0  0  0  0  0  0  0  0
   -4.9777   -0.7904  -19.7787 C   0  0  0  0  0  0  0  0  0  0  0  0
   -5.5028   -1.7220  -20.8305 C   0  0  0  0  0  0  0  0  0  0  0  0
   -5.4760   -3.2041  -20.6008 C   0  0  0  0  0  0  0  0  0  0  0  0
   -4.9242   -3.7545  -19.3191 O   0  0  0  0  0  0  0  0  0  0  0  0
   -7.5623    0.7049  -25.6568 C   0  0  0  0  0  0  0  0  0  0  0  0
   -6.6664    1.1128  -26.7886 C   0  0  0  0  0  0  0  0  0  0  0  0
   -6.9437    2.3772  -27.5464 N   0  0  0  0  0  0  0  0  0  0  0  0
   -8.1169    3.2337  -27.1724 C   0  0  0  0  0  0  0  0  0  0  0  0
   -9.0128    2.8259  -26.0406 C   0  0  0  0  0  0  0  0  0  0  0  0
  -10.1861    3.6825  -25.6666 C   0  0  0  0  0  0  0  0  0  0  0  0
  -11.0819    3.2745  -24.5348 C   0  0  0  0  0  0  0  0  0  0  0  0
  -10.8046    2.0101  -23.7769 C   0  0  0  0  0  0  0  0  0  0  0  0
   -9.6314    1.1536  -24.1509 C   0  0  0  0  0  0  0  0  0  0  0  0
   -8.7355    1.5614  -25.2828 C   0  0  0  0  0  0  0  0  0  0  0  0
   -5.9742   -5.6178  -21.4228 C   0  0  0  0  0  0  0  0  0  0  0  0
   -3.4891   -7.2533  -24.0494 C   0  0  0  0  0  0  0  0  0  0  0  0
   -4.0328   -6.3400  -22.9910 N   0  0  0  0  0  0  0  0  0  0  0  0
   -5.4305   -6.5311  -22.4812 C   0  0  0  0  0  0  0  0  0  0  0  0
   -6.2845   -7.6356  -23.0299 O   0  0  0  0  0  0  0  0  0  0  0  0
   -3.4723   -5.6152  -22.6309 H   0  0  0  0  0  0  0  0  0  0  0  0
   -7.2398   -4.4026  -24.3567 C   0  0  0  0  0  0  0  0  0  0  0  0
   -8.1014   -5.0570  -25.3954 S   0  0  0  0  0  0  0  0  0  0  0  0
   -9.3285   -4.6431  -24.6385 O   0  0  0  0  0  0  0  0  0  0  0  0
   -6.8744   -5.4710  -26.1525 O   0  0  0  0  0  0  0  0  0  0  0  0
   -8.9631   -5.7116  -26.4342 N   0  0  0  0  0  0  0  0  0  0  0  0
   -9.5052   -4.9042  -27.5764 C   0  0  0  0  0  0  0  0  0  0  0  0
   -9.2827   -7.1735  -26.3310 C   0  0  0  0  0  0  0  0  0  0  0  0
 29 30  1  0  0  0
 30 31  1  0  0  0
 31 32  2  0  0  0
 31 28  1  0  0  0
 28  1  1  0  0  0
  1  2  1  0  0  0
  3  2  1  0  0  0
  3  4  1  0  0  0
  4  5  2  0  0  0
  4  6  1  0  0  0
  6 18  1  0  0  0
 18 19  2  0  0  0
 19 20  1  0  0  0
 20 21  2  0  0  0
 21 22  1  0  0  0
 22 23  2  0  0  0
 23 24  1  0  0  0
 24 25  2  0  0  0
 25 26  1  0  0  0
 26 27  2  0  0  0
  6  7  1  0  0  0
  7  8  1  0  0  0
  8 34  1  0  0  0
 34 35  1  0  0  0
 35 36  2  0  0  0
 35 37  2  0  0  0
 35 38  1  0  0  0
 38 39  1  0  0  0
 38 40  1  0  0  0
  3  9  1  0  0  0
  9 10  2  0  0  0
 10 11  1  0  0  0
 11 12  1  0  0  0
 11 13  2  0  0  0
 13 14  1  0  0  0
 14 15  2  0  0  0
 15 16  1  0  0  0
 16 17  2  0  0  0
 16  1  1  0  0  0
  8  3  1  0  0  0
 15  9  1  0  0  0
 27 18  1  0  0  0
 27 22  1  0  0  0
 30 33  1  0  0  0
M  END
> <minimizedAffinity>
-7.85875

> <CNNscore>
0.3185650408

> <CNNaffinity>
6.5093812943

> <CNN_VS>
2.0736613274

> <CNNaffinity_variance>
0.0704881102

$$$$



 40 44  0  0  0  0  0  0  0  0999 V2000
   -9.5413    2.6896  -24.2998 N   0  0  0  0  0  0  0  0  0  0  0  0
   -8.5660    1.5548  -24.4049 C   0  0  0  0  0  0  0  0  0  0  0  0
   -9.0175    0.1503  -24.1340 C   0  0  0  0  0  0  0  0  0  0  0  0
   -9.3216   -1.2988  -23.8937 C   0  0  0  0  0  0  0  0  0  0  0  0
  -10.2530   -2.0158  -23.5860 O   0  0  0  0  0  0  0  0  0  0  0  0
   -8.0589   -2.0793  -24.1091 N   0  0  0  0  0  0  0  0  0  0  0  0
   -6.9744   -1.1127  -24.4825 C   0  0  0  0  0  0  0  0  0  0  0  0
   -7.5669    0.2653  -24.4980 C   0  0  0  0  0  0  0  0  0  0  0  0
  -10.4444   -0.1195  -23.7580 C   0  0  0  0  0  0  0  0  0  0  0  0
  -10.8959   -1.5240  -23.4872 C   0  0  0  0  0  0  0  0  0  0  0  0
  -12.3227   -1.7938  -23.1112 C   0  0  0  0  0  0  0  0  0  0  0  0
  -12.7743   -3.1984  -22.8403 F   0  0  0  0  0  0  0  0  0  0  0  0
  -13.2980   -0.6590  -23.0061 C   0  0  0  0  0  0  0  0  0  0  0  0
  -12.8465    0.7455  -23.2769 C   0  0  0  0  0  0  0  0  0  0  0  0
  -11.4197    1.0153  -23.6529 C   0  0  0  0  0  0  0  0  0  0  0  0
  -10.9681    2.4198  -23.9238 C   0  0  0  0  0  0  0  0  0  0  0  0
  -11.9434    3.5546  -23.8187 O   0  0  0  0  0  0  0  0  0  0  0  0
   -7.9073   -3.5656  -23.9746 C   0  0  0  0  0  0  0  0  0  0  0  0
   -7.2911   -4.1477  -22.7370 C   0  0  0  0  0  0  0  0  0  0  0  0
   -7.1396   -5.6339  -22.6025 N   0  0  0  0  0  0  0  0  0  0  0  0
   -7.6042   -6.5380  -23.7056 C   0  0  0  0  0  0  0  0  0  0  0  0
   -8.2203   -5.9559  -24.9431 C   0  0  0  0  0  0  0  0  0  0  0  0
   -8.6849   -6.8601  -26.0462 C   0  0  0  0  0  0  0  0  0  0  0  0
   -9.3011   -6.2778  -27.2837 C   0  0  0  0  0  0  0  0  0  0  0  0
   -9.4527   -4.7916  -27.4182 C   0  0  0  0  0  0  0  0  0  0  0  0
   -8.9881   -3.8875  -26.3151 C   0  0  0  0  0  0  0  0  0  0  0  0
   -8.3719   -4.4697  -25.0776 C   0  0  0  0  0  0  0  0  0  0  0  0
   -9.0898    4.0942  -24.5707 C   0  0  0  0  0  0  0  0  0  0  0  0
   -9.8231    4.5907  -28.4392 C   0  0  0  0  0  0  0  0  0  0  0  0
   -9.4877    3.9338  -27.1331 N   0  0  0  0  0  0  0  0  0  0  0  0
   -9.4252    4.7510  -25.8768 C   0  0  0  0  0  0  0  0  0  0  0  0
   -9.6981    6.2252  -25.9267 O   0  0  0  0  0  0  0  0  0  0  0  0
   -9.3085    2.9663  -27.1004 H   0  0  0  0  0  0  0  0  0  0  0  0
   -6.8369    1.5353  -24.8207 C   0  0  0  0  0  0  0  0  0  0  0  0
   -5.4955    1.8061  -24.2066 S   0  0  0  0  0  0  0  0  0  0  0  0
   -5.1799    2.7631  -25.3178 O   0  0  0  0  0  0  0  0  0  0  0  0
   -5.8109    0.8491  -23.0954 O   0  0  0  0  0  0  0  0  0  0  0  0
   -4.1540    2.0769  -23.5925 N   0  0  0  0  0  0  0  0  0  0  0  0
   -3.1076    1.0023  -23.5722 C   0  0  0  0  0  0  0  0  0  0  0  0
   -3.8588    3.4224  -22.9986 C   0  0  0  0  0  0  0  0  0  0  0  0
 29 30  1  0  0  0
 30 31  1  0  0  0
 31 32  2  0  0  0
 31 28  1  0  0  0
 28  1  1  0  0  0
  1  2  1  0  0  0
  3  2  1  0  0  0
  3  4  1  0  0  0
  4  5  2  0  0  0
  4  6  1  0  0  0
  6 18  1  0  0  0
 18 19  2  0  0  0
 19 20  1  0  0  0
 20 21  2  0  0  0
 21 22  1  0  0  0
 22 23  2  0  0  0
 23 24  1  0  0  0
 24 25  2  0  0  0
 25 26  1  0  0  0
 26 27  2  0  0  0
  6  7  1  0  0  0
  7  8  1  0  0  0
  8 34  1  0  0  0
 34 35  1  0  0  0
 35 36  2  0  0  0
 35 37  2  0  0  0
 35 38  1  0  0  0
 38 39  1  0  0  0
 38 40  1  0  0  0
  3  9  1  0  0  0
  9 10  2  0  0  0
 10 11  1  0  0  0
 11 12  1  0  0  0
 11 13  2  0  0  0
 13 14  1  0  0  0
 14 15  2  0  0  0
 15 16  1  0  0  0
 16 17  2  0  0  0
 16  1  1  0  0  0
  8  3  1  0  0  0
 15  9  1  0  0  0
 27 18  1  0  0  0
 27 22  1  0  0  0
 30 33  1  0  0  0
M  END
> <minimizedAffinity>
-6.80614

> <CNNscore>
0.2688764334

> <CNNaffinity>
6.5037193298

> <CNN_VS>
1.7486968040

> <CNNaffinity_variance>
0.0470212027

$$$$



 40 44  0  0  0  0  0  0  0  0999 V2000
   -7.1422   -0.9916  -22.1585 N   0  0  0  0  0  0  0  0  0  0  0  0
   -7.2108    0.3231  -22.8776 C   0  0  0  0  0  0  0  0  0  0  0  0
   -8.5077    0.7856  -23.4726 C   0  0  0  0  0  0  0  0  0  0  0  0
   -9.7275    1.3764  -24.1153 C   0  0  0  0  0  0  0  0  0  0  0  0
  -10.9017    1.1205  -24.2944 O   0  0  0  0  0  0  0  0  0  0  0  0
   -9.3423    2.6962  -24.7151 N   0  0  0  0  0  0  0  0  0  0  0  0
   -7.8844    2.9211  -24.4431 C   0  0  0  0  0  0  0  0  0  0  0  0
   -7.3686    1.7403  -23.6752 C   0  0  0  0  0  0  0  0  0  0  0  0
   -9.7360   -0.0665  -23.3486 C   0  0  0  0  0  0  0  0  0  0  0  0
  -11.0329    0.3961  -23.9437 C   0  0  0  0  0  0  0  0  0  0  0  0
  -12.2611   -0.4560  -23.8197 C   0  0  0  0  0  0  0  0  0  0  0  0
  -13.5580    0.0066  -24.4147 F   0  0  0  0  0  0  0  0  0  0  0  0
  -12.1924   -1.7706  -23.1007 C   0  0  0  0  0  0  0  0  0  0  0  0
  -10.8956   -2.2332  -22.5056 C   0  0  0  0  0  0  0  0  0  0  0  0
   -9.6673   -1.3811  -22.6296 C   0  0  0  0  0  0  0  0  0  0  0  0
   -8.3704   -1.8437  -22.0345 C   0  0  0  0  0  0  0  0  0  0  0  0
   -8.3017   -3.1583  -21.3155 O   0  0  0  0  0  0  0  0  0  0  0  0
  -10.2548    3.6276  -25.4566 C   0  0  0  0  0  0  0  0  0  0  0  0
  -10.0412    3.8798  -26.9198 C   0  0  0  0  0  0  0  0  0  0  0  0
  -10.9537    4.8112  -27.6613 N   0  0  0  0  0  0  0  0  0  0  0  0
  -12.0798    5.4903  -26.9397 C   0  0  0  0  0  0  0  0  0  0  0  0
  -12.2933    5.2381  -25.4766 C   0  0  0  0  0  0  0  0  0  0  0  0
  -13.4195    5.9173  -24.7550 C   0  0  0  0  0  0  0  0  0  0  0  0
  -13.6329    5.6650  -23.2918 C   0  0  0  0  0  0  0  0  0  0  0  0
  -12.7204    4.7337  -22.5503 C   0  0  0  0  0  0  0  0  0  0  0  0
  -11.5944    4.0545  -23.2719 C   0  0  0  0  0  0  0  0  0  0  0  0
  -11.3808    4.3067  -24.7350 C   0  0  0  0  0  0  0  0  0  0  0  0
   -5.8452   -1.4541  -21.5635 C   0  0  0  0  0  0  0  0  0  0  0  0
   -5.6038   -5.3800  -22.0916 C   0  0  0  0  0  0  0  0  0  0  0  0
   -5.8227   -3.9229  -22.3725 N   0  0  0  0  0  0  0  0  0  0  0  0
   -5.6263   -2.9113  -21.2826 C   0  0  0  0  0  0  0  0  0  0  0  0
   -5.2111   -3.3567  -19.9117 O   0  0  0  0  0  0  0  0  0  0  0  0
   -6.0952   -3.6305  -23.2722 H   0  0  0  0  0  0  0  0  0  0  0  0
   -5.9608    1.5480  -23.1944 C   0  0  0  0  0  0  0  0  0  0  0  0
   -5.0433    2.7278  -23.0691 S   0  0  0  0  0  0  0  0  0  0  0  0
   -5.6836    3.0870  -21.7610 O   0  0  0  0  0  0  0  0  0  0  0  0
   -4.4029    2.3687  -24.3772 O   0  0  0  0  0  0  0  0  0  0  0  0
   -4.1256    3.9078  -22.9438 N   0  0  0  0  0  0  0  0  0  0  0  0
   -4.6310    5.2868  -23.2488 C   0  0  0  0  0  0  0  0  0  0  0  0
   -2.7025    3.7087  -22.5136 C   0  0  0  0  0  0  0  0  0  0  0  0
 29 30  1  0  0  0
 30 31  1  0  0  0
 31 32  2  0  0  0
 31 28  1  0  0  0
 28  1  1  0  0  0
  1  2  1  0  0  0
  3  2  1  0  0  0
  3  4  1  0  0  0
  4  5  2  0  0  0
  4  6  1  0  0  0
  6 18  1  0  0  0
 18 19  2  0  0  0
 19 20  1  0  0  0
 20 21  2  0  0  0
 21 22  1  0  0  0
 22 23  2  0  0  0
 23 24  1  0  0  0
 24 25  2  0  0  0
 25 26  1  0  0  0
 26 27  2  0  0  0
  6  7  1  0  0  0
  7  8  1  0  0  0
  8 34  1  0  0  0
 34 35  1  0  0  0
 35 36  2  0  0  0
 35 37  2  0  0  0
 35 38  1  0  0  0
 38 39  1  0  0  0
 38 40  1  0  0  0
  3  9  1  0  0  0
  9 10  2  0  0  0
 10 11  1  0  0  0
 11 12  1  0  0  0
 11 13  2  0  0  0
 13 14  1  0  0  0
 14 15  2  0  0  0
 15 16  1  0  0  0
 16 17  2  0  0  0
 16  1  1  0  0  0
  8  3  1  0  0  0
 15  9  1  0  0  0
 27 18  1  0  0  0
 27 22  1  0  0  0
 30 33  1  0  0  0
M  END
> <minimizedAffinity>
-7.23437

> <CNNscore>
0.2504329979

> <CNNaffinity>
6.3883733749

> <CNN_VS>
1.5998594761

> <CNNaffinity_variance>
0.0407230780

$$$$
