


 40 44  0  0  0  0  0  0  0  0999 V2000
   10.7464   -0.0123   22.9583 N   0  0  0  0  0  0  0  0  0  0  0  0
    9.4847   -0.8031   22.7772 C   0  0  0  0  0  0  0  0  0  0  0  0
    9.2588   -2.0493   23.5808 C   0  0  0  0  0  0  0  0  0  0  0  0
    8.8954   -3.3090   24.3096 C   0  0  0  0  0  0  0  0  0  0  0  0
    9.3444   -4.0582   25.1542 O   0  0  0  0  0  0  0  0  0  0  0  0
    7.5510   -3.7575   23.8182 N   0  0  0  0  0  0  0  0  0  0  0  0
    7.0835   -2.7750   22.7857 C   0  0  0  0  0  0  0  0  0  0  0  0
    8.1389   -1.7193   22.6389 C   0  0  0  0  0  0  0  0  0  0  0  0
   10.2945   -2.5048   24.5656 C   0  0  0  0  0  0  0  0  0  0  0  0
   10.0686   -3.7510   25.3692 C   0  0  0  0  0  0  0  0  0  0  0  0
   11.1043   -4.2064   26.3540 C   0  0  0  0  0  0  0  0  0  0  0  0
   10.8784   -5.4527   27.1577 F   0  0  0  0  0  0  0  0  0  0  0  0
   12.3659   -3.4156   26.5352 C   0  0  0  0  0  0  0  0  0  0  0  0
   12.5919   -2.1694   25.7316 C   0  0  0  0  0  0  0  0  0  0  0  0
   11.5562   -1.7140   24.7468 C   0  0  0  0  0  0  0  0  0  0  0  0
   11.7821   -0.4677   23.9431 C   0  0  0  0  0  0  0  0  0  0  0  0
   13.0438    0.3231   24.1243 O   0  0  0  0  0  0  0  0  0  0  0  0
    6.8051   -4.9748   24.2786 C   0  0  0  0  0  0  0  0  0  0  0  0
    7.1983   -6.3312   23.7730 C   0  0  0  0  0  0  0  0  0  0  0  0
    6.4524   -7.5484   24.2333 N   0  0  0  0  0  0  0  0  0  0  0  0
    5.3134   -7.4093   25.1993 C   0  0  0  0  0  0  0  0  0  0  0  0
    4.9202   -6.0529   25.7049 C   0  0  0  0  0  0  0  0  0  0  0  0
    3.7811   -5.9138   26.6710 C   0  0  0  0  0  0  0  0  0  0  0  0
    3.3880   -4.5573   27.1766 C   0  0  0  0  0  0  0  0  0  0  0  0
    4.1338   -3.3401   26.7162 C   0  0  0  0  0  0  0  0  0  0  0  0
    5.2729   -3.4792   25.7502 C   0  0  0  0  0  0  0  0  0  0  0  0
    5.6661   -4.8356   25.2446 C   0  0  0  0  0  0  0  0  0  0  0  0
   10.9723    1.2340   22.1547 C   0  0  0  0  0  0  0  0  0  0  0  0
   10.8158    5.1182   22.9535 C   0  0  0  0  0  0  0  0  0  0  0  0
   11.3008    3.7955   22.4385 N   0  0  0  0  0  0  0  0  0  0  0  0
   10.4873    2.5567   22.6696 C   0  0  0  0  0  0  0  0  0  0  0  0
    9.1887    2.6405   23.4158 O   0  0  0  0  0  0  0  0  0  0  0  0
   12.1531    3.7405   21.9488 H   0  0  0  0  0  0  0  0  0  0  0  0
    8.0842   -0.5406   21.7129 C   0  0  0  0  0  0  0  0  0  0  0  0
    6.8441   -0.2723   20.9128 S   0  0  0  0  0  0  0  0  0  0  0  0
    6.2286   -1.5329   21.4440 O   0  0  0  0  0  0  0  0  0  0  0  0
    7.4596    0.9883   20.3815 O   0  0  0  0  0  0  0  0  0  0  0  0
    5.6041   -0.0040   20.1126 N   0  0  0  0  0  0  0  0  0  0  0  0
    4.4213    0.6535   20.7599 C   0  0  0  0  0  0  0  0  0  0  0  0
    5.5466   -0.3932   18.6651 C   0  0  0  0  0  0  0  0  0  0  0  0
 29 30  1  0  0  0
 30 31  1  0  0  0
 31 32  2  0  0  0
 31 28  1  0  0  0
 28  1  1  0  0  0
  1  2  1  0  0  0
  3  2  1  0  0  0
  3  4  1  0  0  0
  4  5  2  0  0  0
  4  6  1  0  0  0
  6 18  1  0  0  0
 18 19  2  0  0  0
 19 20  1  0  0  0
 20 21  2  0  0  0
 21 22  1  0  0  0
 22 23  2  0  0  0
 23 24  1  0  0  0
 24 25  2  0  0  0
 25 26  1  0  0  0
 26 27  2  0  0  0
  6  7  1  0  0  0
  7  8  1  0  0  0
  8 34  1  0  0  0
 34 35  1  0  0  0
 35 36  2  0  0  0
 35 37  2  0  0  0
 35 38  1  0  0  0
 38 39  1  0  0  0
 38 40  1  0  0  0
  3  9  1  0  0  0
  9 10  2  0  0  0
 10 11  1  0  0  0
 11 12  1  0  0  0
 11 13  2  0  0  0
 13 14  1  0  0  0
 14 15  2  0  0  0
 15 16  1  0  0  0
 16 17  2  0  0  0
 16  1  1  0  0  0
  8  3  1  0  0  0
 15  9  1  0  0  0
 27 18  1  0  0  0
 27 22  1  0  0  0
 30 33  1  0  0  0
M  END
> <minimizedAffinity>
-8.85592

> <CNNscore>
0.4778320193

> <CNNaffinity>
7.0089693069

> <CNN_VS>
3.3491098881

> <CNNaffinity_variance>
0.2524323463

$$$$



 40 44  0  0  0  0  0  0  0  0999 V2000
    5.1786    0.9820   21.5121 N   0  0  0  0  0  0  0  0  0  0  0  0
    6.0512   -0.1830   21.8747 C   0  0  0  0  0  0  0  0  0  0  0  0
    7.4427    0.0518   22.3832 C   0  0  0  0  0  0  0  0  0  0  0  0
    8.8479    0.1306   22.9019 C   0  0  0  0  0  0  0  0  0  0  0  0
    9.6900    0.9590   23.1867 O   0  0  0  0  0  0  0  0  0  0  0  0
    9.3370   -1.2690   23.1300 N   0  0  0  0  0  0  0  0  0  0  0  0
    8.2340   -2.2128   22.7522 C   0  0  0  0  0  0  0  0  0  0  0  0
    7.0633   -1.3964   22.2906 C   0  0  0  0  0  0  0  0  0  0  0  0
    7.9617    1.4517   22.5291 C   0  0  0  0  0  0  0  0  0  0  0  0
    9.3532    1.6865   23.0375 C   0  0  0  0  0  0  0  0  0  0  0  0
    9.8720    3.0863   23.1834 C   0  0  0  0  0  0  0  0  0  0  0  0
   11.2636    3.3212   23.6919 F   0  0  0  0  0  0  0  0  0  0  0  0
    8.9994    4.2512   22.8209 C   0  0  0  0  0  0  0  0  0  0  0  0
    7.6080    4.0164   22.3124 C   0  0  0  0  0  0  0  0  0  0  0  0
    7.0891    2.6166   22.1665 C   0  0  0  0  0  0  0  0  0  0  0  0
    5.6975    2.3817   21.6580 C   0  0  0  0  0  0  0  0  0  0  0  0
    4.8249    3.5467   21.2954 O   0  0  0  0  0  0  0  0  0  0  0  0
   10.6913   -1.6567   23.6454 C   0  0  0  0  0  0  0  0  0  0  0  0
   11.9243   -1.2499   22.8943 C   0  0  0  0  0  0  0  0  0  0  0  0
   13.2786   -1.6376   23.4097 N   0  0  0  0  0  0  0  0  0  0  0  0
   13.3998   -2.4321   24.6762 C   0  0  0  0  0  0  0  0  0  0  0  0
   12.1668   -2.8388   25.4273 C   0  0  0  0  0  0  0  0  0  0  0  0
   12.2880   -3.6333   26.6939 C   0  0  0  0  0  0  0  0  0  0  0  0
   11.0549   -4.0401   27.4450 C   0  0  0  0  0  0  0  0  0  0  0  0
    9.7007   -3.6524   26.9296 C   0  0  0  0  0  0  0  0  0  0  0  0
    9.5795   -2.8579   25.6631 C   0  0  0  0  0  0  0  0  0  0  0  0
   10.8125   -2.4511   24.9119 C   0  0  0  0  0  0  0  0  0  0  0  0
    3.7871    0.7471   21.0036 C   0  0  0  0  0  0  0  0  0  0  0  0
    1.5253    2.5899   23.6940 C   0  0  0  0  0  0  0  0  0  0  0  0
    2.6832    1.8677   23.0713 N   0  0  0  0  0  0  0  0  0  0  0  0
    2.6292    1.4693   21.6263 C   0  0  0  0  0  0  0  0  0  0  0  0
    1.4173    1.7931   20.8037 O   0  0  0  0  0  0  0  0  0  0  0  0
    3.4786    1.6551   23.6112 H   0  0  0  0  0  0  0  0  0  0  0  0
    5.7447   -1.9340   21.8193 C   0  0  0  0  0  0  0  0  0  0  0  0
    5.4360   -3.3949   21.9623 S   0  0  0  0  0  0  0  0  0  0  0  0
    5.5452   -3.2721   23.4532 O   0  0  0  0  0  0  0  0  0  0  0  0
    5.3267   -3.5177   20.4712 O   0  0  0  0  0  0  0  0  0  0  0  0
    5.1272   -4.8558   22.1052 N   0  0  0  0  0  0  0  0  0  0  0  0
    4.1767   -5.3211   23.1683 C   0  0  0  0  0  0  0  0  0  0  0  0
    5.7690   -5.8515   21.1851 C   0  0  0  0  0  0  0  0  0  0  0  0
 29 30  1  0  0  0
 30 31  1  0  0  0
 31 32  2  0  0  0
 31 28  1  0  0  0
 28  1  1  0  0  0
  1  2  1  0  0  0
  3  2  1  0  0  0
  3  4  1  0  0  0
  4  5  2  0  0  0
  4  6  1  0  0  0
  6 18  1  0  0  0
 18 19  2  0  0  0
 19 20  1  0  0  0
 20 21  2  0  0  0
 21 22  1  0  0  0
 22 23  2  0  0  0
 23 24  1  0  0  0
 24 25  2  0  0  0
 25 26  1  0  0  0
 26 27  2  0  0  0
  6  7  1  0  0  0
  7  8  1  0  0  0
  8 34  1  0  0  0
 34 35  1  0  0  0
 35 36  2  0  0  0
 35 37  2  0  0  0
 35 38  1  0  0  0
 38 39  1  0  0  0
 38 40  1  0  0  0
  3  9  1  0  0  0
  9 10  2  0  0  0
 10 11  1  0  0  0
 11 12  1  0  0  0
 11 13  2  0  0  0
 13 14  1  0  0  0
 14 15  2  0  0  0
 15 16  1  0  0  0
 16 17  2  0  0  0
 16  1  1  0  0  0
  8  3  1  0  0  0
 15  9  1  0  0  0
 27 18  1  0  0  0
 27 22  1  0  0  0
 30 33  1  0  0  0
M  END
> <minimizedAffinity>
-6.99045

> <CNNscore>
0.4332597852

> <CNNaffinity>
6.9910612106

> <CNN_VS>
3.0289456844

> <CNNaffinity_variance>
0.1580158770

$$$$



 40 44  0  0  0  0  0  0  0  0999 V2000
    9.8098    0.6511   23.0603 N   0  0  0  0  0  0  0  0  0  0  0  0
    8.6289   -0.2627   22.9184 C   0  0  0  0  0  0  0  0  0  0  0  0
    8.6287   -1.5993   23.5991 C   0  0  0  0  0  0  0  0  0  0  0  0
    8.4860   -2.9583   24.2179 C   0  0  0  0  0  0  0  0  0  0  0  0
    9.1036   -3.7275   24.9274 O   0  0  0  0  0  0  0  0  0  0  0  0
    7.1522   -3.5135   23.8147 N   0  0  0  0  0  0  0  0  0  0  0  0
    6.4705   -2.4978   22.9467 C   0  0  0  0  0  0  0  0  0  0  0  0
    7.3831   -1.3147   22.8135 C   0  0  0  0  0  0  0  0  0  0  0  0
    9.8096   -2.0221   24.4219 C   0  0  0  0  0  0  0  0  0  0  0  0
    9.8095   -3.3587   25.1026 C   0  0  0  0  0  0  0  0  0  0  0  0
   10.9903   -3.7814   25.9253 C   0  0  0  0  0  0  0  0  0  0  0  0
   10.9902   -5.1181   26.6061 F   0  0  0  0  0  0  0  0  0  0  0  0
   12.1713   -2.8676   26.0673 C   0  0  0  0  0  0  0  0  0  0  0  0
   12.1714   -1.5310   25.3865 C   0  0  0  0  0  0  0  0  0  0  0  0
   10.9906   -1.1083   24.5638 C   0  0  0  0  0  0  0  0  0  0  0  0
   10.9907    0.2284   23.8830 C   0  0  0  0  0  0  0  0  0  0  0  0
   12.1716    1.1423   24.0250 O   0  0  0  0  0  0  0  0  0  0  0  0
    6.5975   -4.8499   24.2101 C   0  0  0  0  0  0  0  0  0  0  0  0
    7.1474   -6.1023   23.5943 C   0  0  0  0  0  0  0  0  0  0  0  0
    6.5927   -7.4386   23.9897 N   0  0  0  0  0  0  0  0  0  0  0  0
    5.4881   -7.5227   25.0009 C   0  0  0  0  0  0  0  0  0  0  0  0
    4.9381   -6.2704   25.6168 C   0  0  0  0  0  0  0  0  0  0  0  0
    3.8334   -6.3545   26.6281 C   0  0  0  0  0  0  0  0  0  0  0  0
    3.2835   -5.1021   27.2438 C   0  0  0  0  0  0  0  0  0  0  0  0
    3.8382   -3.7657   26.8485 C   0  0  0  0  0  0  0  0  0  0  0  0
    4.9429   -3.6816   25.8372 C   0  0  0  0  0  0  0  0  0  0  0  0
    5.4928   -4.9340   25.2214 C   0  0  0  0  0  0  0  0  0  0  0  0
    9.8099    1.9878   22.3795 C   0  0  0  0  0  0  0  0  0  0  0  0
    8.9544    5.7212   23.4185 C   0  0  0  0  0  0  0  0  0  0  0  0
    9.6322    4.5500   22.7714 N   0  0  0  0  0  0  0  0  0  0  0  0
    9.1321    3.1591   23.0266 C   0  0  0  0  0  0  0  0  0  0  0  0
    7.9541    2.9394   23.9289 O   0  0  0  0  0  0  0  0  0  0  0  0
   10.4054    4.6942   22.1792 H   0  0  0  0  0  0  0  0  0  0  0  0
    7.0996   -0.0663   22.0318 C   0  0  0  0  0  0  0  0  0  0  0  0
    6.2177   -0.1241   20.8199 S   0  0  0  0  0  0  0  0  0  0  0  0
    7.4275   -0.0527   19.9360 O   0  0  0  0  0  0  0  0  0  0  0  0
    5.0078   -0.1956   21.7037 O   0  0  0  0  0  0  0  0  0  0  0  0
    5.3357   -0.1820   19.6080 N   0  0  0  0  0  0  0  0  0  0  0  0
    4.4653    0.9882   19.2572 C   0  0  0  0  0  0  0  0  0  0  0  0
    5.3241   -1.4101   18.7467 C   0  0  0  0  0  0  0  0  0  0  0  0
 29 30  1  0  0  0
 30 31  1  0  0  0
 31 32  2  0  0  0
 31 28  1  0  0  0
 28  1  1  0  0  0
  1  2  1  0  0  0
  3  2  1  0  0  0
  3  4  1  0  0  0
  4  5  2  0  0  0
  4  6  1  0  0  0
  6 18  1  0  0  0
 18 19  2  0  0  0
 19 20  1  0  0  0
 20 21  2  0  0  0
 21 22  1  0  0  0
 22 23  2  0  0  0
 23 24  1  0  0  0
 24 25  2  0  0  0
 25 26  1  0  0  0
 26 27  2  0  0  0
  6  7  1  0  0  0
  7  8  1  0  0  0
  8 34  1  0  0  0
 34 35  1  0  0  0
 35 36  2  0  0  0
 35 37  2  0  0  0
 35 38  1  0  0  0
 38 39  1  0  0  0
 38 40  1  0  0  0
  3  9  1  0  0  0
  9 10  2  0  0  0
 10 11  1  0  0  0
 11 12  1  0  0  0
 11 13  2  0  0  0
 13 14  1  0  0  0
 14 15  2  0  0  0
 15 16  1  0  0  0
 16 17  2  0  0  0
 16  1  1  0  0  0
  8  3  1  0  0  0
 15  9  1  0  0  0
 27 18  1  0  0  0
 27 22  1  0  0  0
 30 33  1  0  0  0
M  END
> <minimizedAffinity>
-8.58808

> <CNNscore>
0.4034110904

> <CNNaffinity>
6.9880471230

> <CNN_VS>
2.8190557957

> <CNNaffinity_variance>
0.1433062851

$$$$



 40 44  0  0  0  0  0  0  0  0999 V2000
   10.5773    4.0650   22.7092 N   0  0  0  0  0  0  0  0  0  0  0  0
    9.2385    3.5062   23.0905 C   0  0  0  0  0  0  0  0  0  0  0  0
    9.1013    2.0506   23.4257 C   0  0  0  0  0  0  0  0  0  0  0  0
    8.8115    0.6234   23.7849 C   0  0  0  0  0  0  0  0  0  0  0  0
    9.3836   -0.4425   23.8982 O   0  0  0  0  0  0  0  0  0  0  0  0
    7.3483    0.5115   24.0960 N   0  0  0  0  0  0  0  0  0  0  0  0
    6.7339    1.8697   23.9290 C   0  0  0  0  0  0  0  0  0  0  0  0
    7.8173    2.8209   23.5148 C   0  0  0  0  0  0  0  0  0  0  0  0
   10.3029    1.1538   23.3796 C   0  0  0  0  0  0  0  0  0  0  0  0
   10.1656   -0.3018   23.7148 C   0  0  0  0  0  0  0  0  0  0  0  0
   11.3671   -1.1985   23.6688 C   0  0  0  0  0  0  0  0  0  0  0  0
   11.2299   -2.6542   24.0040 F   0  0  0  0  0  0  0  0  0  0  0  0
   12.7059   -0.6397   23.2875 C   0  0  0  0  0  0  0  0  0  0  0  0
   12.8431    0.8159   22.9523 C   0  0  0  0  0  0  0  0  0  0  0  0
   11.6416    1.7126   22.9984 C   0  0  0  0  0  0  0  0  0  0  0  0
   11.7788    3.1683   22.6631 C   0  0  0  0  0  0  0  0  0  0  0  0
   13.1176    3.7271   22.2818 O   0  0  0  0  0  0  0  0  0  0  0  0
    6.6265   -0.7389   24.5025 C   0  0  0  0  0  0  0  0  0  0  0  0
    6.4395   -1.8519   23.5145 C   0  0  0  0  0  0  0  0  0  0  0  0
    5.7176   -3.1023   23.9211 N   0  0  0  0  0  0  0  0  0  0  0  0
    5.1827   -3.2397   25.3157 C   0  0  0  0  0  0  0  0  0  0  0  0
    5.3697   -2.1267   26.3037 C   0  0  0  0  0  0  0  0  0  0  0  0
    4.8348   -2.2641   27.6984 C   0  0  0  0  0  0  0  0  0  0  0  0
    5.0218   -1.1510   28.6864 C   0  0  0  0  0  0  0  0  0  0  0  0
    5.7437    0.0994   28.2798 C   0  0  0  0  0  0  0  0  0  0  0  0
    6.2786    0.2368   26.8852 C   0  0  0  0  0  0  0  0  0  0  0  0
    6.0916   -0.8763   25.8972 C   0  0  0  0  0  0  0  0  0  0  0  0
   10.7145    5.5207   22.3740 C   0  0  0  0  0  0  0  0  0  0  0  0
   10.6536    7.7926   25.6275 C   0  0  0  0  0  0  0  0  0  0  0  0
   11.0752    6.7511   24.6336 N   0  0  0  0  0  0  0  0  0  0  0  0
   10.2929    6.5621   23.3678 C   0  0  0  0  0  0  0  0  0  0  0  0
    9.0890    7.4146   23.0958 O   0  0  0  0  0  0  0  0  0  0  0  0
   11.8654    6.1916   24.8122 H   0  0  0  0  0  0  0  0  0  0  0  0
    7.6465    4.2852   23.2382 C   0  0  0  0  0  0  0  0  0  0  0  0
    6.2707    4.8723   23.1278 S   0  0  0  0  0  0  0  0  0  0  0  0
    6.3593    5.3473   24.5478 O   0  0  0  0  0  0  0  0  0  0  0  0
    6.1819    4.3972   21.7078 O   0  0  0  0  0  0  0  0  0  0  0  0
    4.8948    5.4593   23.0174 N   0  0  0  0  0  0  0  0  0  0  0  0
    4.7065    6.8224   22.4202 C   0  0  0  0  0  0  0  0  0  0  0  0
    3.7069    4.6832   23.5040 C   0  0  0  0  0  0  0  0  0  0  0  0
 29 30  1  0  0  0
 30 31  1  0  0  0
 31 32  2  0  0  0
 31 28  1  0  0  0
 28  1  1  0  0  0
  1  2  1  0  0  0
  3  2  1  0  0  0
  3  4  1  0  0  0
  4  5  2  0  0  0
  4  6  1  0  0  0
  6 18  1  0  0  0
 18 19  2  0  0  0
 19 20  1  0  0  0
 20 21  2  0  0  0
 21 22  1  0  0  0
 22 23  2  0  0  0
 23 24  1  0  0  0
 24 25  2  0  0  0
 25 26  1  0  0  0
 26 27  2  0  0  0
  6  7  1  0  0  0
  7  8  1  0  0  0
  8 34  1  0  0  0
 34 35  1  0  0  0
 35 36  2  0  0  0
 35 37  2  0  0  0
 35 38  1  0  0  0
 38 39  1  0  0  0
 38 40  1  0  0  0
  3  9  1  0  0  0
  9 10  2  0  0  0
 10 11  1  0  0  0
 11 12  1  0  0  0
 11 13  2  0  0  0
 13 14  1  0  0  0
 14 15  2  0  0  0
 15 16  1  0  0  0
 16 17  2  0  0  0
 16  1  1  0  0  0
  8  3  1  0  0  0
 15  9  1  0  0  0
 27 18  1  0  0  0
 27 22  1  0  0  0
 30 33  1  0  0  0
M  END
> <minimizedAffinity>
-7.22665

> <CNNscore>
0.3578194678

> <CNNaffinity>
6.7987470627

> <CNN_VS>
2.4327239990

> <CNNaffinity_variance>
0.2681187987

$$$$



 40 44  0  0  0  0  0  0  0  0999 V2000
    5.2777    4.0065   22.9960 N   0  0  0  0  0  0  0  0  0  0  0  0
    6.0024    2.7042   22.8259 C   0  0  0  0  0  0  0  0  0  0  0  0
    6.4872    1.9527   24.0301 C   0  0  0  0  0  0  0  0  0  0  0  0
    7.0276    1.0936   25.1345 C   0  0  0  0  0  0  0  0  0  0  0  0
    7.1010    1.0735   26.3472 O   0  0  0  0  0  0  0  0  0  0  0  0
    7.6731   -0.1092   24.5126 N   0  0  0  0  0  0  0  0  0  0  0  0
    7.5316    0.0067   23.0238 C   0  0  0  0  0  0  0  0  0  0  0  0
    6.7987    1.2810   22.7256 C   0  0  0  0  0  0  0  0  0  0  0  0
    6.2474    2.5036   25.4046 C   0  0  0  0  0  0  0  0  0  0  0  0
    6.7323    1.7521   26.6088 C   0  0  0  0  0  0  0  0  0  0  0  0
    6.4925    2.3029   27.9832 C   0  0  0  0  0  0  0  0  0  0  0  0
    6.9773    1.5514   29.1875 F   0  0  0  0  0  0  0  0  0  0  0  0
    5.7678    3.6052   28.1534 C   0  0  0  0  0  0  0  0  0  0  0  0
    5.2830    4.3566   26.9492 C   0  0  0  0  0  0  0  0  0  0  0  0
    5.5228    3.8058   25.5748 C   0  0  0  0  0  0  0  0  0  0  0  0
    5.0379    4.5573   24.3705 C   0  0  0  0  0  0  0  0  0  0  0  0
    4.3133    5.8596   24.5407 O   0  0  0  0  0  0  0  0  0  0  0  0
    8.3425   -1.2308   25.2500 C   0  0  0  0  0  0  0  0  0  0  0  0
    7.5155   -2.2502   25.9759 C   0  0  0  0  0  0  0  0  0  0  0  0
    8.1849   -3.3718   26.7134 N   0  0  0  0  0  0  0  0  0  0  0  0
    9.6813   -3.4741   26.7249 C   0  0  0  0  0  0  0  0  0  0  0  0
   10.5084   -2.4547   25.9990 C   0  0  0  0  0  0  0  0  0  0  0  0
   12.0049   -2.5570   26.0105 C   0  0  0  0  0  0  0  0  0  0  0  0
   12.8319   -1.5376   25.2846 C   0  0  0  0  0  0  0  0  0  0  0  0
   12.1625   -0.4160   24.5471 C   0  0  0  0  0  0  0  0  0  0  0  0
   10.6660   -0.3137   24.5356 C   0  0  0  0  0  0  0  0  0  0  0  0
    9.8390   -1.3331   25.2615 C   0  0  0  0  0  0  0  0  0  0  0  0
    4.7929    4.7579   21.7917 C   0  0  0  0  0  0  0  0  0  0  0  0
    2.1447    3.1727   19.2969 C   0  0  0  0  0  0  0  0  0  0  0  0
    3.4554    3.5356   19.9298 N   0  0  0  0  0  0  0  0  0  0  0  0
    3.4822    4.3951   21.1588 C   0  0  0  0  0  0  0  0  0  0  0  0
    2.1985    4.8917   21.7550 O   0  0  0  0  0  0  0  0  0  0  0  0
    4.2979    3.2096   19.5385 H   0  0  0  0  0  0  0  0  0  0  0  0
    6.4403    1.7936   21.3622 C   0  0  0  0  0  0  0  0  0  0  0  0
    5.9143    0.8508   20.3209 S   0  0  0  0  0  0  0  0  0  0  0  0
    7.2691    0.8041   19.6788 O   0  0  0  0  0  0  0  0  0  0  0  0
    4.5594    0.8975   20.9629 O   0  0  0  0  0  0  0  0  0  0  0  0
    5.3883   -0.0919   19.2795 N   0  0  0  0  0  0  0  0  0  0  0  0
    5.2916   -1.5592   19.5762 C   0  0  0  0  0  0  0  0  0  0  0  0
    4.9588    0.4325   17.9413 C   0  0  0  0  0  0  0  0  0  0  0  0
 29 30  1  0  0  0
 30 31  1  0  0  0
 31 32  2  0  0  0
 31 28  1  0  0  0
 28  1  1  0  0  0
  1  2  1  0  0  0
  3  2  1  0  0  0
  3  4  1  0  0  0
  4  5  2  0  0  0
  4  6  1  0  0  0
  6 18  1  0  0  0
 18 19  2  0  0  0
 19 20  1  0  0  0
 20 21  2  0  0  0
 21 22  1  0  0  0
 22 23  2  0  0  0
 23 24  1  0  0  0
 24 25  2  0  0  0
 25 26  1  0  0  0
 26 27  2  0  0  0
  6  7  1  0  0  0
  7  8  1  0  0  0
  8 34  1  0  0  0
 34 35  1  0  0  0
 35 36  2  0  0  0
 35 37  2  0  0  0
 35 38  1  0  0  0
 38 39  1  0  0  0
 38 40  1  0  0  0
  3  9  1  0  0  0
  9 10  2  0  0  0
 10 11  1  0  0  0
 11 12  1  0  0  0
 11 13  2  0  0  0
 13 14  1  0  0  0
 14 15  2  0  0  0
 15 16  1  0  0  0
 16 17  2  0  0  0
 16  1  1  0  0  0
  8  3  1  0  0  0
 15  9  1  0  0  0
 27 18  1  0  0  0
 27 22  1  0  0  0
 30 33  1  0  0  0
M  END
> <minimizedAffinity>
-7.30285

> <CNNscore>
0.3541589677

> <CNNaffinity>
6.4720964432

> <CNN_VS>
2.2921509743

> <CNNaffinity_variance>
0.0400738902

$$$$



 40 44  0  0  0  0  0  0  0  0999 V2000
    5.1484    2.2469   23.2775 N   0  0  0  0  0  0  0  0  0  0  0  0
    6.5126    1.6536   23.4699 C   0  0  0  0  0  0  0  0  0  0  0  0
    6.6954    0.4713   24.3748 C   0  0  0  0  0  0  0  0  0  0  0  0
    7.0309   -0.7047   25.2433 C   0  0  0  0  0  0  0  0  0  0  0  0
    6.4881   -1.4975   25.9870 O   0  0  0  0  0  0  0  0  0  0  0  0
    8.5065   -0.9530   25.1378 N   0  0  0  0  0  0  0  0  0  0  0  0
    9.0830    0.0696   24.2040 C   0  0  0  0  0  0  0  0  0  0  0  0
    7.9637    0.9499   23.7325 C   0  0  0  0  0  0  0  0  0  0  0  0
    5.5141   -0.1177   25.0873 C   0  0  0  0  0  0  0  0  0  0  0  0
    5.6970   -1.2999   25.9922 C   0  0  0  0  0  0  0  0  0  0  0  0
    4.5157   -1.8888   26.7046 C   0  0  0  0  0  0  0  0  0  0  0  0
    4.6985   -3.0711   27.6095 F   0  0  0  0  0  0  0  0  0  0  0  0
    3.1515   -1.2955   26.5122 C   0  0  0  0  0  0  0  0  0  0  0  0
    2.9686   -0.1133   25.6073 C   0  0  0  0  0  0  0  0  0  0  0  0
    4.1499    0.4756   24.8949 C   0  0  0  0  0  0  0  0  0  0  0  0
    3.9671    1.6580   23.9900 C   0  0  0  0  0  0  0  0  0  0  0  0
    2.6029    2.2513   23.7975 O   0  0  0  0  0  0  0  0  0  0  0  0
    9.2713   -2.0341   25.8423 C   0  0  0  0  0  0  0  0  0  0  0  0
    8.5382   -3.0852   26.6220 C   0  0  0  0  0  0  0  0  0  0  0  0
    9.3030   -4.1663   27.3265 N   0  0  0  0  0  0  0  0  0  0  0  0
   10.8008   -4.1962   27.2514 C   0  0  0  0  0  0  0  0  0  0  0  0
   11.5338   -3.1451   26.4717 C   0  0  0  0  0  0  0  0  0  0  0  0
   13.0317   -3.1751   26.3966 C   0  0  0  0  0  0  0  0  0  0  0  0
   13.7647   -2.1240   25.6170 C   0  0  0  0  0  0  0  0  0  0  0  0
   12.9999   -1.0429   24.9124 C   0  0  0  0  0  0  0  0  0  0  0  0
   11.5021   -1.0129   24.9875 C   0  0  0  0  0  0  0  0  0  0  0  0
   10.7691   -2.0640   25.7672 C   0  0  0  0  0  0  0  0  0  0  0  0
    4.9656    3.4292   22.3726 C   0  0  0  0  0  0  0  0  0  0  0  0
    3.7405    1.9793   18.8874 C   0  0  0  0  0  0  0  0  0  0  0  0
    4.5000    2.1286   20.1722 N   0  0  0  0  0  0  0  0  0  0  0  0
    4.2061    3.2799   21.0877 C   0  0  0  0  0  0  0  0  0  0  0  0
    3.1527    4.2819   20.7184 O   0  0  0  0  0  0  0  0  0  0  0  0
    5.1914    1.4710   20.4146 H   0  0  0  0  0  0  0  0  0  0  0  0
    8.0904    2.1058   22.7849 C   0  0  0  0  0  0  0  0  0  0  0  0
    9.3603    2.9026   22.7395 S   0  0  0  0  0  0  0  0  0  0  0  0
    8.6378    4.0868   23.3102 O   0  0  0  0  0  0  0  0  0  0  0  0
   10.0829    1.7185   22.1688 O   0  0  0  0  0  0  0  0  0  0  0  0
   10.6304    3.6995   22.6940 N   0  0  0  0  0  0  0  0  0  0  0  0
   11.9470    3.0029   22.5165 C   0  0  0  0  0  0  0  0  0  0  0  0
   10.5839    5.1929   22.8261 C   0  0  0  0  0  0  0  0  0  0  0  0
 29 30  1  0  0  0
 30 31  1  0  0  0
 31 32  2  0  0  0
 31 28  1  0  0  0
 28  1  1  0  0  0
  1  2  1  0  0  0
  3  2  1  0  0  0
  3  4  1  0  0  0
  4  5  2  0  0  0
  4  6  1  0  0  0
  6 18  1  0  0  0
 18 19  2  0  0  0
 19 20  1  0  0  0
 20 21  2  0  0  0
 21 22  1  0  0  0
 22 23  2  0  0  0
 23 24  1  0  0  0
 24 25  2  0  0  0
 25 26  1  0  0  0
 26 27  2  0  0  0
  6  7  1  0  0  0
  7  8  1  0  0  0
  8 34  1  0  0  0
 34 35  1  0  0  0
 35 36  2  0  0  0
 35 37  2  0  0  0
 35 38  1  0  0  0
 38 39  1  0  0  0
 38 40  1  0  0  0
  3  9  1  0  0  0
  9 10  2  0  0  0
 10 11  1  0  0  0
 11 12  1  0  0  0
 11 13  2  0  0  0
 13 14  1  0  0  0
 14 15  2  0  0  0
 15 16  1  0  0  0
 16 17  2  0  0  0
 16  1  1  0  0  0
  8  3  1  0  0  0
 15  9  1  0  0  0
 27 18  1  0  0  0
 27 22  1  0  0  0
 30 33  1  0  0  0
M  END
> <minimizedAffinity>
-7.05405

> <CNNscore>
0.3177123368

> <CNNaffinity>
6.6403374672

> <CNN_VS>
2.1097171307

> <CNNaffinity_variance>
0.0848581120

$$$$



 40 44  0  0  0  0  0  0  0  0999 V2000
   10.4948    0.3381   23.7502 N   0  0  0  0  0  0  0  0  0  0  0  0
    9.0927   -0.0373   24.1287 C   0  0  0  0  0  0  0  0  0  0  0  0
    8.8478   -1.2114   25.0295 C   0  0  0  0  0  0  0  0  0  0  0  0
    8.4498   -2.3535   25.9167 C   0  0  0  0  0  0  0  0  0  0  0  0
    8.9546   -3.2527   26.5593 O   0  0  0  0  0  0  0  0  0  0  0  0
    6.9535   -2.3586   26.0227 N   0  0  0  0  0  0  0  0  0  0  0  0
    6.4268   -1.2196   25.2010 C   0  0  0  0  0  0  0  0  0  0  0  0
    7.5975   -0.5106   24.5872 C   0  0  0  0  0  0  0  0  0  0  0  0
   10.0050   -2.0102   25.5519 C   0  0  0  0  0  0  0  0  0  0  0  0
    9.7601   -3.1842   26.4527 C   0  0  0  0  0  0  0  0  0  0  0  0
   10.9173   -3.9829   26.9751 C   0  0  0  0  0  0  0  0  0  0  0  0
   10.6725   -5.1571   27.8760 F   0  0  0  0  0  0  0  0  0  0  0  0
   12.3194   -3.6075   26.5967 C   0  0  0  0  0  0  0  0  0  0  0  0
   12.5643   -2.4335   25.6959 C   0  0  0  0  0  0  0  0  0  0  0  0
   11.4071   -1.6348   25.1735 C   0  0  0  0  0  0  0  0  0  0  0  0
   11.6520   -0.4606   24.2726 C   0  0  0  0  0  0  0  0  0  0  0  0
   13.0541   -0.0852   23.8942 O   0  0  0  0  0  0  0  0  0  0  0  0
    6.1288   -3.3318   26.8118 C   0  0  0  0  0  0  0  0  0  0  0  0
    5.9993   -3.1731   28.2978 C   0  0  0  0  0  0  0  0  0  0  0  0
    5.1746   -4.1463   29.0869 N   0  0  0  0  0  0  0  0  0  0  0  0
    4.4795   -5.2782   28.3901 C   0  0  0  0  0  0  0  0  0  0  0  0
    4.6090   -5.4369   26.9042 C   0  0  0  0  0  0  0  0  0  0  0  0
    3.9138   -6.5689   26.2073 C   0  0  0  0  0  0  0  0  0  0  0  0
    4.0435   -6.7275   24.7214 C   0  0  0  0  0  0  0  0  0  0  0  0
    4.8681   -5.7543   23.9322 C   0  0  0  0  0  0  0  0  0  0  0  0
    5.5633   -4.6224   24.6290 C   0  0  0  0  0  0  0  0  0  0  0  0
    5.4337   -4.4637   26.1150 C   0  0  0  0  0  0  0  0  0  0  0  0
   10.7396    1.5122   22.8494 C   0  0  0  0  0  0  0  0  0  0  0  0
    8.1974    4.5431   23.1670 C   0  0  0  0  0  0  0  0  0  0  0  0
    9.3140    3.5911   23.4785 N   0  0  0  0  0  0  0  0  0  0  0  0
    9.6231    2.4643   22.5379 C   0  0  0  0  0  0  0  0  0  0  0  0
    8.8157    2.2894   21.2859 O   0  0  0  0  0  0  0  0  0  0  0  0
    9.8439    3.7058   24.3002 H   0  0  0  0  0  0  0  0  0  0  0  0
    7.5298    0.6887   23.6887 C   0  0  0  0  0  0  0  0  0  0  0  0
    6.2150    1.1176   23.1081 S   0  0  0  0  0  0  0  0  0  0  0  0
    6.3907    0.1375   21.9862 O   0  0  0  0  0  0  0  0  0  0  0  0
    6.0393    2.0977   24.2300 O   0  0  0  0  0  0  0  0  0  0  0  0
    4.9002    1.5465   22.5274 N   0  0  0  0  0  0  0  0  0  0  0  0
    4.1445    2.6868   23.1431 C   0  0  0  0  0  0  0  0  0  0  0  0
    4.3408    0.8353   21.3311 C   0  0  0  0  0  0  0  0  0  0  0  0
 29 30  1  0  0  0
 30 31  1  0  0  0
 31 32  2  0  0  0
 31 28  1  0  0  0
 28  1  1  0  0  0
  1  2  1  0  0  0
  3  2  1  0  0  0
  3  4  1  0  0  0
  4  5  2  0  0  0
  4  6  1  0  0  0
  6 18  1  0  0  0
 18 19  2  0  0  0
 19 20  1  0  0  0
 20 21  2  0  0  0
 21 22  1  0  0  0
 22 23  2  0  0  0
 23 24  1  0  0  0
 24 25  2  0  0  0
 25 26  1  0  0  0
 26 27  2  0  0  0
  6  7  1  0  0  0
  7  8  1  0  0  0
  8 34  1  0  0  0
 34 35  1  0  0  0
 35 36  2  0  0  0
 35 37  2  0  0  0
 35 38  1  0  0  0
 38 39  1  0  0  0
 38 40  1  0  0  0
  3  9  1  0  0  0
  9 10  2  0  0  0
 10 11  1  0  0  0
 11 12  1  0  0  0
 11 13  2  0  0  0
 13 14  1  0  0  0
 14 15  2  0  0  0
 15 16  1  0  0  0
 16 17  2  0  0  0
 16  1  1  0  0  0
  8  3  1  0  0  0
 15  9  1  0  0  0
 27 18  1  0  0  0
 27 22  1  0  0  0
 30 33  1  0  0  0
M  END
> <minimizedAffinity>
-8.13461

> <CNNscore>
0.3158874810

> <CNNaffinity>
6.6580533981

> <CNN_VS>
2.1031956673

> <CNNaffinity_variance>
0.0823057070

$$$$



 40 44  0  0  0  0  0  0  0  0999 V2000
    6.1227    4.3241   21.8297 N   0  0  0  0  0  0  0  0  0  0  0  0
    6.6495    2.9244   21.9454 C   0  0  0  0  0  0  0  0  0  0  0  0
    8.0571    2.6886   22.4068 C   0  0  0  0  0  0  0  0  0  0  0  0
    9.4357    2.2993   22.8517 C   0  0  0  0  0  0  0  0  0  0  0  0
   10.4737    2.8113   23.2216 O   0  0  0  0  0  0  0  0  0  0  0  0
    9.5284    0.8026   22.8178 N   0  0  0  0  0  0  0  0  0  0  0  0
    8.2071    0.2668   22.3520 C   0  0  0  0  0  0  0  0  0  0  0  0
    7.2978    1.4324   22.0979 C   0  0  0  0  0  0  0  0  0  0  0  0
    8.9381    3.8525   22.7524 C   0  0  0  0  0  0  0  0  0  0  0  0
   10.3458    3.6166   23.2137 C   0  0  0  0  0  0  0  0  0  0  0  0
   11.2266    4.7805   23.5593 C   0  0  0  0  0  0  0  0  0  0  0  0
   12.6344    4.5446   24.0206 F   0  0  0  0  0  0  0  0  0  0  0  0
   10.6999    6.1801   23.4435 C   0  0  0  0  0  0  0  0  0  0  0  0
    9.2922    6.4160   22.9822 C   0  0  0  0  0  0  0  0  0  0  0  0
    8.4114    5.2522   22.6366 C   0  0  0  0  0  0  0  0  0  0  0  0
    7.0036    5.4880   22.1753 C   0  0  0  0  0  0  0  0  0  0  0  0
    6.4769    6.8877   22.0595 O   0  0  0  0  0  0  0  0  0  0  0  0
   10.7312   -0.0149   23.1853 C   0  0  0  0  0  0  0  0  0  0  0  0
   12.0343    0.2075   22.4763 C   0  0  0  0  0  0  0  0  0  0  0  0
   13.2371   -0.6100   22.8438 N   0  0  0  0  0  0  0  0  0  0  0  0
   13.1369   -1.6497   23.9203 C   0  0  0  0  0  0  0  0  0  0  0  0
   11.8338   -1.8720   24.6293 C   0  0  0  0  0  0  0  0  0  0  0  0
   11.7336   -2.9118   25.7059 C   0  0  0  0  0  0  0  0  0  0  0  0
   10.4305   -3.1341   26.4148 C   0  0  0  0  0  0  0  0  0  0  0  0
    9.2277   -2.3166   26.0473 C   0  0  0  0  0  0  0  0  0  0  0  0
    9.3280   -1.2769   24.9708 C   0  0  0  0  0  0  0  0  0  0  0  0
   10.6310   -1.0546   24.2618 C   0  0  0  0  0  0  0  0  0  0  0  0
    4.7150    4.5599   21.3683 C   0  0  0  0  0  0  0  0  0  0  0  0
    2.5101    7.7859   22.0621 C   0  0  0  0  0  0  0  0  0  0  0  0
    3.3738    6.7850   21.3535 N   0  0  0  0  0  0  0  0  0  0  0  0
    3.8513    5.5609   22.0769 C   0  0  0  0  0  0  0  0  0  0  0  0
    3.4650    5.3376   23.5091 O   0  0  0  0  0  0  0  0  0  0  0  0
    3.6273    6.9315   20.4135 H   0  0  0  0  0  0  0  0  0  0  0  0
    5.8784    1.3553   21.6191 C   0  0  0  0  0  0  0  0  0  0  0  0
    5.5724    0.7759   20.2698 S   0  0  0  0  0  0  0  0  0  0  0  0
    7.0157    0.9112   19.8843 O   0  0  0  0  0  0  0  0  0  0  0  0
    4.1290    0.6405   20.6553 O   0  0  0  0  0  0  0  0  0  0  0  0
    5.2663    0.1965   18.9206 N   0  0  0  0  0  0  0  0  0  0  0  0
    4.5982    1.0404   17.8758 C   0  0  0  0  0  0  0  0  0  0  0  0
    5.6284   -1.2270   18.6159 C   0  0  0  0  0  0  0  0  0  0  0  0
 29 30  1  0  0  0
 30 31  1  0  0  0
 31 32  2  0  0  0
 31 28  1  0  0  0
 28  1  1  0  0  0
  1  2  1  0  0  0
  3  2  1  0  0  0
  3  4  1  0  0  0
  4  5  2  0  0  0
  4  6  1  0  0  0
  6 18  1  0  0  0
 18 19  2  0  0  0
 19 20  1  0  0  0
 20 21  2  0  0  0
 21 22  1  0  0  0
 22 23  2  0  0  0
 23 24  1  0  0  0
 24 25  2  0  0  0
 25 26  1  0  0  0
 26 27  2  0  0  0
  6  7  1  0  0  0
  7  8  1  0  0  0
  8 34  1  0  0  0
 34 35  1  0  0  0
 35 36  2  0  0  0
 35 37  2  0  0  0
 35 38  1  0  0  0
 38 39  1  0  0  0
 38 40  1  0  0  0
  3  9  1  0  0  0
  9 10  2  0  0  0
 10 11  1  0  0  0
 11 12  1  0  0  0
 11 13  2  0  0  0
 13 14  1  0  0  0
 14 15  2  0  0  0
 15 16  1  0  0  0
 16 17  2  0  0  0
 16  1  1  0  0  0
  8  3  1  0  0  0
 15  9  1  0  0  0
 27 18  1  0  0  0
 27 22  1  0  0  0
 30 33  1  0  0  0
M  END
> <minimizedAffinity>
-7.24288

> <CNNscore>
0.2575047910

> <CNNaffinity>
6.4643836021

> <CNN_VS>
1.6646097898

> <CNNaffinity_variance>
0.0911091641

$$$$



 40 44  0  0  0  0  0  0  0  0999 V2000
   10.2998    1.4558   23.0078 N   0  0  0  0  0  0  0  0  0  0  0  0
    9.8922    0.3108   23.8869 C   0  0  0  0  0  0  0  0  0  0  0  0
    8.4732   -0.1753   23.8755 C   0  0  0  0  0  0  0  0  0  0  0  0
    7.0984   -0.7676   23.9710 C   0  0  0  0  0  0  0  0  0  0  0  0
    5.9876   -0.6224   23.5006 O   0  0  0  0  0  0  0  0  0  0  0  0
    7.1443   -1.8874   24.9679 N   0  0  0  0  0  0  0  0  0  0  0  0
    8.5475   -1.9872   25.4886 C   0  0  0  0  0  0  0  0  0  0  0  0
    9.3688   -0.9290   24.8135 C   0  0  0  0  0  0  0  0  0  0  0  0
    7.4618    0.4836   22.9850 C   0  0  0  0  0  0  0  0  0  0  0  0
    6.0428   -0.0025   22.9736 C   0  0  0  0  0  0  0  0  0  0  0  0
    5.0315    0.6564   22.0831 C   0  0  0  0  0  0  0  0  0  0  0  0
    3.6124    0.1703   22.0717 F   0  0  0  0  0  0  0  0  0  0  0  0
    5.4391    1.8014   21.2040 C   0  0  0  0  0  0  0  0  0  0  0  0
    6.8580    2.2875   21.2154 C   0  0  0  0  0  0  0  0  0  0  0  0
    7.8694    1.6286   22.1059 C   0  0  0  0  0  0  0  0  0  0  0  0
    9.2884    2.1147   22.1173 C   0  0  0  0  0  0  0  0  0  0  0  0
    9.6961    3.2597   21.2382 O   0  0  0  0  0  0  0  0  0  0  0  0
    5.9898   -2.7551   25.3731 C   0  0  0  0  0  0  0  0  0  0  0  0
    4.8271   -2.1602   26.1109 C   0  0  0  0  0  0  0  0  0  0  0  0
    3.6726   -3.0279   26.5160 N   0  0  0  0  0  0  0  0  0  0  0  0
    3.6807   -4.4905   26.1833 C   0  0  0  0  0  0  0  0  0  0  0  0
    4.8433   -5.0854   25.4455 C   0  0  0  0  0  0  0  0  0  0  0  0
    4.8514   -6.5481   25.1128 C   0  0  0  0  0  0  0  0  0  0  0  0
    6.0141   -7.1429   24.3749 C   0  0  0  0  0  0  0  0  0  0  0  0
    7.1686   -6.2752   23.9698 C   0  0  0  0  0  0  0  0  0  0  0  0
    7.1605   -4.8126   24.3025 C   0  0  0  0  0  0  0  0  0  0  0  0
    5.9979   -4.2177   25.0403 C   0  0  0  0  0  0  0  0  0  0  0  0
   11.7189    1.9419   23.0192 C   0  0  0  0  0  0  0  0  0  0  0  0
   11.3292    5.8827   23.2815 C   0  0  0  0  0  0  0  0  0  0  0  0
   11.0373    4.4175   23.4156 N   0  0  0  0  0  0  0  0  0  0  0  0
   12.0108    3.4071   22.8851 C   0  0  0  0  0  0  0  0  0  0  0  0
   13.2763    3.8620   22.2205 O   0  0  0  0  0  0  0  0  0  0  0  0
   10.2067    4.1189   23.8518 H   0  0  0  0  0  0  0  0  0  0  0  0
   10.8293   -0.6701   25.0370 C   0  0  0  0  0  0  0  0  0  0  0  0
   11.7049   -1.7500   25.6000 S   0  0  0  0  0  0  0  0  0  0  0  0
   12.8779   -1.1888   24.8523 O   0  0  0  0  0  0  0  0  0  0  0  0
   10.5318   -2.3112   26.3478 O   0  0  0  0  0  0  0  0  0  0  0  0
   12.5804   -2.8299   26.1631 N   0  0  0  0  0  0  0  0  0  0  0  0
   14.0530   -2.5939   26.3241 C   0  0  0  0  0  0  0  0  0  0  0  0
   11.9835   -4.1460   26.5652 C   0  0  0  0  0  0  0  0  0  0  0  0
 29 30  1  0  0  0
 30 31  1  0  0  0
 31 32  2  0  0  0
 31 28  1  0  0  0
 28  1  1  0  0  0
  1  2  1  0  0  0
  3  2  1  0  0  0
  3  4  1  0  0  0
  4  5  2  0  0  0
  4  6  1  0  0  0
  6 18  1  0  0  0
 18 19  2  0  0  0
 19 20  1  0  0  0
 20 21  2  0  0  0
 21 22  1  0  0  0
 22 23  2  0  0  0
 23 24  1  0  0  0
 24 25  2  0  0  0
 25 26  1  0  0  0
 26 27  2  0  0  0
  6  7  1  0  0  0
  7  8  1  0  0  0
  8 34  1  0  0  0
 34 35  1  0  0  0
 35 36  2  0  0  0
 35 37  2  0  0  0
 35 38  1  0  0  0
 38 39  1  0  0  0
 38 40  1  0  0  0
  3  9  1  0  0  0
  9 10  2  0  0  0
 10 11  1  0  0  0
 11 12  1  0  0  0
 11 13  2  0  0  0
 13 14  1  0  0  0
 14 15  2  0  0  0
 15 16  1  0  0  0
 16 17  2  0  0  0
 16  1  1  0  0  0
  8  3  1  0  0  0
 15  9  1  0  0  0
 27 18  1  0  0  0
 27 22  1  0  0  0
 30 33  1  0  0  0
M  END
> <minimizedAffinity>
-7.23075

> <CNNscore>
0.2430332601

> <CNNaffinity>
6.7620177269

> <CNN_VS>
1.6433951855

> <CNNaffinity_variance>
0.0425882041

$$$$
