


 35 40  0  0  0  0  0  0  0  0999 V2000
   -8.0590   -1.5458  -23.5616 N   0  0  0  0  0  0  0  0  0  0  0  0
   -8.2787   -0.0736  -23.7468 C   0  0  0  0  0  0  0  0  0  0  0  0
   -9.6615    0.4977  -23.6397 C   0  0  0  0  0  0  0  0  0  0  0  0
  -10.9798    1.2091  -23.5620 C   0  0  0  0  0  0  0  0  0  0  0  0
  -12.1551    0.9721  -23.3652 O   0  0  0  0  0  0  0  0  0  0  0  0
  -10.7345    2.6681  -23.8093 N   0  0  0  0  0  0  0  0  0  0  0  0
   -9.2646    2.8584  -24.0400 C   0  0  0  0  0  0  0  0  0  0  0  0
   -8.6015    1.5171  -23.9351 C   0  0  0  0  0  0  0  0  0  0  0  0
   -7.1356    1.2432  -24.0972 C   0  0  0  0  0  0  0  0  0  0  0  0
  -10.8246   -0.4033  -23.3474 C   0  0  0  0  0  0  0  0  0  0  0  0
  -12.2074    0.1680  -23.2402 C   0  0  0  0  0  0  0  0  0  0  0  0
  -13.3705   -0.7330  -22.9479 C   0  0  0  0  0  0  0  0  0  0  0  0
  -14.7534   -0.1617  -22.8408 F   0  0  0  0  0  0  0  0  0  0  0  0
  -13.1508   -2.2052  -22.7627 C   0  0  0  0  0  0  0  0  0  0  0  0
  -11.7680   -2.7765  -22.8699 C   0  0  0  0  0  0  0  0  0  0  0  0
  -10.6049   -1.8755  -23.1622 C   0  0  0  0  0  0  0  0  0  0  0  0
   -9.2220   -2.4467  -23.2693 C   0  0  0  0  0  0  0  0  0  0  0  0
   -9.0023   -3.9190  -23.0841 O   0  0  0  0  0  0  0  0  0  0  0  0
  -11.7763    3.7472  -23.8236 C   0  0  0  0  0  0  0  0  0  0  0  0
  -12.5572    4.0523  -22.5798 C   0  0  0  0  0  0  0  0  0  0  0  0
  -13.5990    5.1314  -22.5941 N   0  0  0  0  0  0  0  0  0  0  0  0
  -13.8598    5.9055  -23.8521 C   0  0  0  0  0  0  0  0  0  0  0  0
  -13.0789    5.6004  -25.0960 C   0  0  0  0  0  0  0  0  0  0  0  0
  -13.3397    6.3745  -26.3541 C   0  0  0  0  0  0  0  0  0  0  0  0
  -12.5587    6.0693  -27.5979 C   0  0  0  0  0  0  0  0  0  0  0  0
  -11.5170    4.9902  -27.5836 C   0  0  0  0  0  0  0  0  0  0  0  0
  -11.2562    4.2161  -26.3255 C   0  0  0  0  0  0  0  0  0  0  0  0
  -12.0371    4.5212  -25.0817 C   0  0  0  0  0  0  0  0  0  0  0  0
   -6.6761   -2.1170  -23.6687 C   0  0  0  0  0  0  0  0  0  0  0  0
   -5.5170   -6.8004  -21.5233 C   0  0  0  0  0  0  0  0  0  0  0  0
   -5.6899   -5.3229  -21.7154 C   0  0  0  0  0  0  0  0  0  0  0  0
   -6.2231   -4.6502  -22.9456 N   0  0  0  0  0  0  0  0  0  0  0  0
   -6.2227   -3.1701  -22.7016 C   0  0  0  0  0  0  0  0  0  0  0  0
   -5.6892   -2.9281  -21.3206 C   0  0  0  0  0  0  0  0  0  0  0  0
   -5.3600   -4.2586  -20.7112 O   0  0  0  0  0  0  0  0  0  0  0  0
 30 31  1  0  0  0
 31 32  2  0  0  0
 32 33  1  0  0  0
 33 29  1  0  0  0
 29  1  1  0  0  0
  1  2  1  0  0  0
  3  2  1  0  0  0
  3  4  1  0  0  0
  4  5  2  0  0  0
  4  6  1  0  0  0
  6 19  1  0  0  0
 19 20  2  0  0  0
 20 21  1  0  0  0
 21 22  2  0  0  0
 22 23  1  0  0  0
 23 24  2  0  0  0
 24 25  1  0  0  0
 25 26  2  0  0  0
 26 27  1  0  0  0
 27 28  2  0  0  0
  6  7  1  0  0  0
  7  8  1  0  0  0
  8  9  1  0  0  0
  3 10  1  0  0  0
 10 11  2  0  0  0
 11 12  1  0  0  0
 12 13  1  0  0  0
 12 14  2  0  0  0
 14 15  1  0  0  0
 15 16  2  0  0  0
 16 17  1  0  0  0
 17 18  2  0  0  0
 33 34  2  0  0  0
 34 35  1  0  0  0
 35 31  1  0  0  0
 17  1  1  0  0  0
  8  3  1  0  0  0
 16 10  1  0  0  0
 28 19  1  0  0  0
 28 23  1  0  0  0
M  END
> <minimizedAffinity>
-8.34044

> <CNNscore>
0.8643752337

> <CNNaffinity>
6.9109640121

> <CNN_VS>
5.9736661911

> <CNNaffinity_variance>
0.0786852986

$$$$



 35 40  0  0  0  0  0  0  0  0999 V2000
   -7.3588   -1.0412  -23.0581 N   0  0  0  0  0  0  0  0  0  0  0  0
   -7.7499    0.3898  -23.2805 C   0  0  0  0  0  0  0  0  0  0  0  0
   -9.1995    0.7693  -23.3481 C   0  0  0  0  0  0  0  0  0  0  0  0
  -10.6008    1.2966  -23.4381 C   0  0  0  0  0  0  0  0  0  0  0  0
  -11.7489    0.9023  -23.3850 O   0  0  0  0  0  0  0  0  0  0  0  0
  -10.5253    2.7774  -23.6651 N   0  0  0  0  0  0  0  0  0  0  0  0
   -9.0772    3.1653  -23.7153 C   0  0  0  0  0  0  0  0  0  0  0  0
   -8.2578    1.9243  -23.5194 C   0  0  0  0  0  0  0  0  0  0  0  0
   -6.7598    1.8511  -23.4985 C   0  0  0  0  0  0  0  0  0  0  0  0
  -10.2581   -0.2822  -23.1934 C   0  0  0  0  0  0  0  0  0  0  0  0
  -11.7077    0.0973  -23.2611 C   0  0  0  0  0  0  0  0  0  0  0  0
  -12.7662   -0.9541  -23.1064 C   0  0  0  0  0  0  0  0  0  0  0  0
  -14.2158   -0.5746  -23.1740 F   0  0  0  0  0  0  0  0  0  0  0  0
  -12.3751   -2.3851  -22.8841 C   0  0  0  0  0  0  0  0  0  0  0  0
  -10.9255   -2.7646  -22.8164 C   0  0  0  0  0  0  0  0  0  0  0  0
   -9.8670   -1.7131  -22.9711 C   0  0  0  0  0  0  0  0  0  0  0  0
   -8.4173   -2.0926  -22.9035 C   0  0  0  0  0  0  0  0  0  0  0  0
   -8.0262   -3.5236  -22.6811 O   0  0  0  0  0  0  0  0  0  0  0  0
  -11.6929    3.7070  -23.8154 C   0  0  0  0  0  0  0  0  0  0  0  0
  -12.6053    3.9594  -22.6518 C   0  0  0  0  0  0  0  0  0  0  0  0
  -13.7728    4.8890  -22.8021 N   0  0  0  0  0  0  0  0  0  0  0  0
  -14.0280    5.5662  -24.1160 C   0  0  0  0  0  0  0  0  0  0  0  0
  -13.1157    5.3137  -25.2796 C   0  0  0  0  0  0  0  0  0  0  0  0
  -13.3709    5.9909  -26.5936 C   0  0  0  0  0  0  0  0  0  0  0  0
  -12.4585    5.7384  -27.7571 C   0  0  0  0  0  0  0  0  0  0  0  0
  -11.2909    4.8088  -27.6067 C   0  0  0  0  0  0  0  0  0  0  0  0
  -11.0357    4.1317  -26.2929 C   0  0  0  0  0  0  0  0  0  0  0  0
  -11.9481    4.3841  -25.1293 C   0  0  0  0  0  0  0  0  0  0  0  0
   -5.9091   -1.4206  -22.9905 C   0  0  0  0  0  0  0  0  0  0  0  0
   -1.9803    1.7152  -21.3746 C   0  0  0  0  0  0  0  0  0  0  0  0
   -3.1653    0.7956  -21.3704 C   0  0  0  0  0  0  0  0  0  0  0  0
   -3.8332    0.2126  -22.5803 N   0  0  0  0  0  0  0  0  0  0  0  0
   -4.9712   -0.6458  -22.1131 C   0  0  0  0  0  0  0  0  0  0  0  0
   -5.0066   -0.5932  -20.6144 C   0  0  0  0  0  0  0  0  0  0  0  0
   -3.8904    0.2976  -20.1554 O   0  0  0  0  0  0  0  0  0  0  0  0
 30 31  1  0  0  0
 31 32  2  0  0  0
 32 33  1  0  0  0
 33 29  1  0  0  0
 29  1  1  0  0  0
  1  2  1  0  0  0
  3  2  1  0  0  0
  3  4  1  0  0  0
  4  5  2  0  0  0
  4  6  1  0  0  0
  6 19  1  0  0  0
 19 20  2  0  0  0
 20 21  1  0  0  0
 21 22  2  0  0  0
 22 23  1  0  0  0
 23 24  2  0  0  0
 24 25  1  0  0  0
 25 26  2  0  0  0
 26 27  1  0  0  0
 27 28  2  0  0  0
  6  7  1  0  0  0
  7  8  1  0  0  0
  8  9  1  0  0  0
  3 10  1  0  0  0
 10 11  2  0  0  0
 11 12  1  0  0  0
 12 13  1  0  0  0
 12 14  2  0  0  0
 14 15  1  0  0  0
 15 16  2  0  0  0
 16 17  1  0  0  0
 17 18  2  0  0  0
 33 34  2  0  0  0
 34 35  1  0  0  0
 35 31  1  0  0  0
 17  1  1  0  0  0
  8  3  1  0  0  0
 16 10  1  0  0  0
 28 19  1  0  0  0
 28 23  1  0  0  0
M  END
> <minimizedAffinity>
-8.55101

> <CNNscore>
0.7025859952

> <CNNaffinity>
6.7184500694

> <CNN_VS>
4.7202887535

> <CNNaffinity_variance>
0.0892310664

$$$$



 35 40  0  0  0  0  0  0  0  0999 V2000
   -5.5968   -6.4184  -23.9512 N   0  0  0  0  0  0  0  0  0  0  0  0
   -6.1393   -5.1774  -23.3065 C   0  0  0  0  0  0  0  0  0  0  0  0
   -7.1765   -4.3567  -24.0140 C   0  0  0  0  0  0  0  0  0  0  0  0
   -8.2110   -3.4403  -24.5971 C   0  0  0  0  0  0  0  0  0  0  0  0
   -8.8952   -3.3236  -25.5944 O   0  0  0  0  0  0  0  0  0  0  0  0
   -8.4536   -2.3315  -23.6165 N   0  0  0  0  0  0  0  0  0  0  0  0
   -7.5691   -2.5626  -22.4273 C   0  0  0  0  0  0  0  0  0  0  0  0
   -6.7798   -3.8143  -22.6730 C   0  0  0  0  0  0  0  0  0  0  0  0
   -5.7709   -4.4175  -21.7412 C   0  0  0  0  0  0  0  0  0  0  0  0
   -7.6714   -4.7771  -25.3663 C   0  0  0  0  0  0  0  0  0  0  0  0
   -8.7086   -3.9564  -26.0738 C   0  0  0  0  0  0  0  0  0  0  0  0
   -9.2034   -4.3768  -27.4259 C   0  0  0  0  0  0  0  0  0  0  0  0
  -10.2407   -3.5561  -28.1335 F   0  0  0  0  0  0  0  0  0  0  0  0
   -8.6609   -5.6178  -28.0707 C   0  0  0  0  0  0  0  0  0  0  0  0
   -7.6236   -6.4384  -27.3632 C   0  0  0  0  0  0  0  0  0  0  0  0
   -7.1289   -6.0181  -26.0110 C   0  0  0  0  0  0  0  0  0  0  0  0
   -6.0915   -6.8387  -25.3034 C   0  0  0  0  0  0  0  0  0  0  0  0
   -5.5490   -8.0797  -25.9481 O   0  0  0  0  0  0  0  0  0  0  0  0
   -9.4125   -1.1917  -23.7939 C   0  0  0  0  0  0  0  0  0  0  0  0
   -8.9301    0.1142  -24.3525 C   0  0  0  0  0  0  0  0  0  0  0  0
   -9.8889    1.2540  -24.5300 N   0  0  0  0  0  0  0  0  0  0  0  0
  -11.3301    1.0879  -24.1488 C   0  0  0  0  0  0  0  0  0  0  0  0
  -11.8125   -0.2179  -23.5901 C   0  0  0  0  0  0  0  0  0  0  0  0
  -13.2538   -0.3840  -23.2089 C   0  0  0  0  0  0  0  0  0  0  0  0
  -13.7361   -1.6899  -22.6503 C   0  0  0  0  0  0  0  0  0  0  0  0
  -12.7772   -2.8297  -22.4729 C   0  0  0  0  0  0  0  0  0  0  0  0
  -11.3360   -2.6636  -22.8541 C   0  0  0  0  0  0  0  0  0  0  0  0
  -10.8537   -1.3577  -23.4127 C   0  0  0  0  0  0  0  0  0  0  0  0
   -4.5594   -7.2390  -23.2437 C   0  0  0  0  0  0  0  0  0  0  0  0
    0.6881   -6.9745  -22.7202 C   0  0  0  0  0  0  0  0  0  0  0  0
   -0.6926   -6.9075  -23.3024 C   0  0  0  0  0  0  0  0  0  0  0  0
   -1.9690   -7.2316  -22.5842 N   0  0  0  0  0  0  0  0  0  0  0  0
   -3.1047   -7.0291  -23.5430 C   0  0  0  0  0  0  0  0  0  0  0  0
   -2.5301   -6.5799  -24.8539 C   0  0  0  0  0  0  0  0  0  0  0  0
   -1.0394   -6.5048  -24.7051 O   0  0  0  0  0  0  0  0  0  0  0  0
 30 31  1  0  0  0
 31 32  2  0  0  0
 32 33  1  0  0  0
 33 29  1  0  0  0
 29  1  1  0  0  0
  1  2  1  0  0  0
  3  2  1  0  0  0
  3  4  1  0  0  0
  4  5  2  0  0  0
  4  6  1  0  0  0
  6 19  1  0  0  0
 19 20  2  0  0  0
 20 21  1  0  0  0
 21 22  2  0  0  0
 22 23  1  0  0  0
 23 24  2  0  0  0
 24 25  1  0  0  0
 25 26  2  0  0  0
 26 27  1  0  0  0
 27 28  2  0  0  0
  6  7  1  0  0  0
  7  8  1  0  0  0
  8  9  1  0  0  0
  3 10  1  0  0  0
 10 11  2  0  0  0
 11 12  1  0  0  0
 12 13  1  0  0  0
 12 14  2  0  0  0
 14 15  1  0  0  0
 15 16  2  0  0  0
 16 17  1  0  0  0
 17 18  2  0  0  0
 33 34  2  0  0  0
 34 35  1  0  0  0
 35 31  1  0  0  0
 17  1  1  0  0  0
  8  3  1  0  0  0
 16 10  1  0  0  0
 28 19  1  0  0  0
 28 23  1  0  0  0
M  END
> <minimizedAffinity>
-7.64554

> <CNNscore>
0.4788403511

> <CNNaffinity>
6.6027002335

> <CNN_VS>
3.1616392136

> <CNNaffinity_variance>
0.0855265856

$$$$



 35 40  0  0  0  0  0  0  0  0999 V2000
   -9.6072    2.6813  -24.3338 N   0  0  0  0  0  0  0  0  0  0  0  0
   -8.6334    1.5484  -24.4696 C   0  0  0  0  0  0  0  0  0  0  0  0
   -9.0779    0.1411  -24.2017 C   0  0  0  0  0  0  0  0  0  0  0  0
   -9.3756   -1.3103  -23.9678 C   0  0  0  0  0  0  0  0  0  0  0  0
  -10.2997   -2.0310  -23.6467 O   0  0  0  0  0  0  0  0  0  0  0  0
   -8.1171   -2.0876  -24.2168 N   0  0  0  0  0  0  0  0  0  0  0  0
   -7.0416   -1.1166  -24.6046 C   0  0  0  0  0  0  0  0  0  0  0  0
   -7.6354    0.2608  -24.5953 C   0  0  0  0  0  0  0  0  0  0  0  0
   -6.9134    1.5343  -24.9222 C   0  0  0  0  0  0  0  0  0  0  0  0
  -10.4962   -0.1334  -23.7978 C   0  0  0  0  0  0  0  0  0  0  0  0
  -10.9408   -1.5407  -23.5299 C   0  0  0  0  0  0  0  0  0  0  0  0
  -12.3590   -1.8152  -23.1261 C   0  0  0  0  0  0  0  0  0  0  0  0
  -12.8036   -3.2226  -22.8581 F   0  0  0  0  0  0  0  0  0  0  0  0
  -13.3328   -0.6824  -22.9903 C   0  0  0  0  0  0  0  0  0  0  0  0
  -12.8883    0.7250  -23.2582 C   0  0  0  0  0  0  0  0  0  0  0  0
  -11.4700    0.9994  -23.6620 C   0  0  0  0  0  0  0  0  0  0  0  0
  -11.0254    2.4068  -23.9300 C   0  0  0  0  0  0  0  0  0  0  0  0
  -11.9992    3.5396  -23.7941 O   0  0  0  0  0  0  0  0  0  0  0  0
   -7.9616   -3.5749  -24.0987 C   0  0  0  0  0  0  0  0  0  0  0  0
   -7.3506   -4.1694  -22.8645 C   0  0  0  0  0  0  0  0  0  0  0  0
   -7.1950   -5.6567  -22.7464 N   0  0  0  0  0  0  0  0  0  0  0  0
   -7.6504   -6.5493  -23.8626 C   0  0  0  0  0  0  0  0  0  0  0  0
   -8.2613   -5.9547  -25.0968 C   0  0  0  0  0  0  0  0  0  0  0  0
   -8.7167   -6.8475  -26.2130 C   0  0  0  0  0  0  0  0  0  0  0  0
   -9.3276   -6.2528  -27.4471 C   0  0  0  0  0  0  0  0  0  0  0  0
   -9.4832   -4.7656  -27.5652 C   0  0  0  0  0  0  0  0  0  0  0  0
   -9.0279   -3.8730  -26.4491 C   0  0  0  0  0  0  0  0  0  0  0  0
   -8.4169   -4.4675  -25.2148 C   0  0  0  0  0  0  0  0  0  0  0  0
   -9.1626    4.0887  -24.6017 C   0  0  0  0  0  0  0  0  0  0  0  0
  -11.5013    5.1181  -29.2225 C   0  0  0  0  0  0  0  0  0  0  0  0
  -10.6927    5.2684  -27.9681 C   0  0  0  0  0  0  0  0  0  0  0  0
  -10.4914    4.2169  -26.9175 N   0  0  0  0  0  0  0  0  0  0  0  0
   -9.6177    4.7952  -25.8442 C   0  0  0  0  0  0  0  0  0  0  0  0
   -9.2790    6.2043  -26.2314 C   0  0  0  0  0  0  0  0  0  0  0  0
   -9.9434    6.4967  -27.5441 O   0  0  0  0  0  0  0  0  0  0  0  0
 30 31  1  0  0  0
 31 32  2  0  0  0
 32 33  1  0  0  0
 33 29  1  0  0  0
 29  1  1  0  0  0
  1  2  1  0  0  0
  3  2  1  0  0  0
  3  4  1  0  0  0
  4  5  2  0  0  0
  4  6  1  0  0  0
  6 19  1  0  0  0
 19 20  2  0  0  0
 20 21  1  0  0  0
 21 22  2  0  0  0
 22 23  1  0  0  0
 23 24  2  0  0  0
 24 25  1  0  0  0
 25 26  2  0  0  0
 26 27  1  0  0  0
 27 28  2  0  0  0
  6  7  1  0  0  0
  7  8  1  0  0  0
  8  9  1  0  0  0
  3 10  1  0  0  0
 10 11  2  0  0  0
 11 12  1  0  0  0
 12 13  1  0  0  0
 12 14  2  0  0  0
 14 15  1  0  0  0
 15 16  2  0  0  0
 16 17  1  0  0  0
 17 18  2  0  0  0
 33 34  2  0  0  0
 34 35  1  0  0  0
 35 31  1  0  0  0
 17  1  1  0  0  0
  8  3  1  0  0  0
 16 10  1  0  0  0
 28 19  1  0  0  0
 28 23  1  0  0  0
M  END
> <minimizedAffinity>
-7.49581

> <CNNscore>
0.4593992233

> <CNNaffinity>
6.5160865784

> <CNN_VS>
2.9934852123

> <CNNaffinity_variance>
0.1408535540

$$$$



 35 40  0  0  0  0  0  0  0  0999 V2000
  -11.2586    3.5028  -23.8826 N   0  0  0  0  0  0  0  0  0  0  0  0
   -9.9345    2.7980  -23.8832 C   0  0  0  0  0  0  0  0  0  0  0  0
   -9.8751    1.3133  -23.6781 C   0  0  0  0  0  0  0  0  0  0  0  0
   -9.6598   -0.1587  -23.4866 C   0  0  0  0  0  0  0  0  0  0  0  0
  -10.2969   -1.1755  -23.2948 O   0  0  0  0  0  0  0  0  0  0  0  0
   -8.1855   -0.4251  -23.5604 N   0  0  0  0  0  0  0  0  0  0  0  0
   -7.4896    0.8824  -23.7976 C   0  0  0  0  0  0  0  0  0  0  0  0
   -8.5338    1.9567  -23.8704 C   0  0  0  0  0  0  0  0  0  0  0  0
   -8.2811    3.4180  -24.0958 C   0  0  0  0  0  0  0  0  0  0  0  0
  -11.1398    0.5334  -23.4724 C   0  0  0  0  0  0  0  0  0  0  0  0
  -11.0804   -0.9513  -23.2672 C   0  0  0  0  0  0  0  0  0  0  0  0
  -12.3451   -1.7311  -23.0615 C   0  0  0  0  0  0  0  0  0  0  0  0
  -12.2858   -3.2159  -22.8564 F   0  0  0  0  0  0  0  0  0  0  0  0
  -13.6692   -1.0263  -23.0609 C   0  0  0  0  0  0  0  0  0  0  0  0
  -13.7286    0.4584  -23.2661 C   0  0  0  0  0  0  0  0  0  0  0  0
  -12.4639    1.2382  -23.4718 C   0  0  0  0  0  0  0  0  0  0  0  0
  -12.5232    2.7230  -23.6769 C   0  0  0  0  0  0  0  0  0  0  0  0
  -13.8473    3.4279  -23.6763 O   0  0  0  0  0  0  0  0  0  0  0  0
   -7.5233   -1.7639  -23.4215 C   0  0  0  0  0  0  0  0  0  0  0  0
   -6.9201   -2.1697  -22.1094 C   0  0  0  0  0  0  0  0  0  0  0  0
   -6.2580   -3.5084  -21.9705 N   0  0  0  0  0  0  0  0  0  0  0  0
   -6.1991   -4.4414  -23.1436 C   0  0  0  0  0  0  0  0  0  0  0  0
   -6.8023   -4.0355  -24.4556 C   0  0  0  0  0  0  0  0  0  0  0  0
   -6.7434   -4.9685  -25.6287 C   0  0  0  0  0  0  0  0  0  0  0  0
   -7.3467   -4.5626  -26.9407 C   0  0  0  0  0  0  0  0  0  0  0  0
   -8.0088   -3.2239  -27.0797 C   0  0  0  0  0  0  0  0  0  0  0  0
   -8.0677   -2.2909  -25.9066 C   0  0  0  0  0  0  0  0  0  0  0  0
   -7.4645   -2.6968  -24.5946 C   0  0  0  0  0  0  0  0  0  0  0  0
  -11.3179    4.9876  -24.0878 C   0  0  0  0  0  0  0  0  0  0  0  0
  -12.9468    5.8878  -29.0291 C   0  0  0  0  0  0  0  0  0  0  0  0
  -12.1741    5.9632  -27.7458 C   0  0  0  0  0  0  0  0  0  0  0  0
  -12.4325    5.1503  -26.5119 N   0  0  0  0  0  0  0  0  0  0  0  0
  -11.4253    5.5494  -25.4744 C   0  0  0  0  0  0  0  0  0  0  0  0
  -10.5444    6.6091  -26.0671 C   0  0  0  0  0  0  0  0  0  0  0  0
  -11.0072    6.8648  -27.4709 O   0  0  0  0  0  0  0  0  0  0  0  0
 30 31  1  0  0  0
 31 32  2  0  0  0
 32 33  1  0  0  0
 33 29  1  0  0  0
 29  1  1  0  0  0
  1  2  1  0  0  0
  3  2  1  0  0  0
  3  4  1  0  0  0
  4  5  2  0  0  0
  4  6  1  0  0  0
  6 19  1  0  0  0
 19 20  2  0  0  0
 20 21  1  0  0  0
 21 22  2  0  0  0
 22 23  1  0  0  0
 23 24  2  0  0  0
 24 25  1  0  0  0
 25 26  2  0  0  0
 26 27  1  0  0  0
 27 28  2  0  0  0
  6  7  1  0  0  0
  7  8  1  0  0  0
  8  9  1  0  0  0
  3 10  1  0  0  0
 10 11  2  0  0  0
 11 12  1  0  0  0
 12 13  1  0  0  0
 12 14  2  0  0  0
 14 15  1  0  0  0
 15 16  2  0  0  0
 16 17  1  0  0  0
 17 18  2  0  0  0
 33 34  2  0  0  0
 34 35  1  0  0  0
 35 31  1  0  0  0
 17  1  1  0  0  0
  8  3  1  0  0  0
 16 10  1  0  0  0
 28 19  1  0  0  0
 28 23  1  0  0  0
M  END
> <minimizedAffinity>
-7.46424

> <CNNscore>
0.4307484031

> <CNNaffinity>
6.5739946365

> <CNN_VS>
2.8317377567

> <CNNaffinity_variance>
0.3903940320

$$$$



 35 40  0  0  0  0  0  0  0  0999 V2000
   -7.1134   -0.8569  -22.5222 N   0  0  0  0  0  0  0  0  0  0  0  0
   -7.2265    0.4734  -23.2059 C   0  0  0  0  0  0  0  0  0  0  0  0
   -8.5618    0.9577  -23.6882 C   0  0  0  0  0  0  0  0  0  0  0  0
   -9.8228    1.5706  -24.2213 C   0  0  0  0  0  0  0  0  0  0  0  0
  -11.0095    1.3266  -24.3137 O   0  0  0  0  0  0  0  0  0  0  0  0
   -9.4742    2.9004  -24.8214 N   0  0  0  0  0  0  0  0  0  0  0  0
   -7.9977    3.1093  -24.6592 C   0  0  0  0  0  0  0  0  0  0  0  0
   -7.4338    1.9087  -23.9589 C   0  0  0  0  0  0  0  0  0  0  0  0
   -5.9946    1.6963  -23.5934 C   0  0  0  0  0  0  0  0  0  0  0  0
   -9.7839    0.1115  -23.4868 C   0  0  0  0  0  0  0  0  0  0  0  0
  -11.1192    0.5958  -23.9691 C   0  0  0  0  0  0  0  0  0  0  0  0
  -12.3412   -0.2504  -23.7677 C   0  0  0  0  0  0  0  0  0  0  0  0
  -13.6765    0.2338  -24.2500 F   0  0  0  0  0  0  0  0  0  0  0  0
  -12.2281   -1.5807  -23.0840 C   0  0  0  0  0  0  0  0  0  0  0  0
  -10.8928   -2.0649  -22.6017 C   0  0  0  0  0  0  0  0  0  0  0  0
   -9.6708   -1.2188  -22.8031 C   0  0  0  0  0  0  0  0  0  0  0  0
   -8.3354   -1.7030  -22.3208 C   0  0  0  0  0  0  0  0  0  0  0  0
   -8.2223   -3.0333  -21.6372 O   0  0  0  0  0  0  0  0  0  0  0  0
  -10.4336    3.8538  -25.4698 C   0  0  0  0  0  0  0  0  0  0  0  0
  -10.2963    4.1807  -26.9273 C   0  0  0  0  0  0  0  0  0  0  0  0
  -11.2558    5.1341  -27.5758 N   0  0  0  0  0  0  0  0  0  0  0  0
  -12.3525    5.7606  -26.7667 C   0  0  0  0  0  0  0  0  0  0  0  0
  -12.4897    5.4338  -25.3091 C   0  0  0  0  0  0  0  0  0  0  0  0
  -13.5865    6.0604  -24.5000 C   0  0  0  0  0  0  0  0  0  0  0  0
  -13.7237    5.7335  -23.0425 C   0  0  0  0  0  0  0  0  0  0  0  0
  -12.7642    4.7800  -22.3941 C   0  0  0  0  0  0  0  0  0  0  0  0
  -11.6676    4.1535  -23.2032 C   0  0  0  0  0  0  0  0  0  0  0  0
  -11.5303    4.4804  -24.6607 C   0  0  0  0  0  0  0  0  0  0  0  0
   -5.7780   -1.3411  -22.0399 C   0  0  0  0  0  0  0  0  0  0  0  0
   -5.6481   -6.5770  -21.3702 C   0  0  0  0  0  0  0  0  0  0  0  0
   -5.5954   -5.1026  -21.1000 C   0  0  0  0  0  0  0  0  0  0  0  0
   -5.7923   -4.0131  -22.1121 N   0  0  0  0  0  0  0  0  0  0  0  0
   -5.6551   -2.6958  -21.4078 C   0  0  0  0  0  0  0  0  0  0  0  0
   -5.3733   -2.9712  -19.9604 C   0  0  0  0  0  0  0  0  0  0  0  0
   -5.3364   -4.4586  -19.7702 O   0  0  0  0  0  0  0  0  0  0  0  0
 30 31  1  0  0  0
 31 32  2  0  0  0
 32 33  1  0  0  0
 33 29  1  0  0  0
 29  1  1  0  0  0
  1  2  1  0  0  0
  3  2  1  0  0  0
  3  4  1  0  0  0
  4  5  2  0  0  0
  4  6  1  0  0  0
  6 19  1  0  0  0
 19 20  2  0  0  0
 20 21  1  0  0  0
 21 22  2  0  0  0
 22 23  1  0  0  0
 23 24  2  0  0  0
 24 25  1  0  0  0
 25 26  2  0  0  0
 26 27  1  0  0  0
 27 28  2  0  0  0
  6  7  1  0  0  0
  7  8  1  0  0  0
  8  9  1  0  0  0
  3 10  1  0  0  0
 10 11  2  0  0  0
 11 12  1  0  0  0
 12 13  1  0  0  0
 12 14  2  0  0  0
 14 15  1  0  0  0
 15 16  2  0  0  0
 16 17  1  0  0  0
 17 18  2  0  0  0
 33 34  2  0  0  0
 34 35  1  0  0  0
 35 31  1  0  0  0
 17  1  1  0  0  0
  8  3  1  0  0  0
 16 10  1  0  0  0
 28 19  1  0  0  0
 28 23  1  0  0  0
M  END
> <minimizedAffinity>
-7.89844

> <CNNscore>
0.4199074507

> <CNNaffinity>
6.2158489227

> <CNN_VS>
2.6100811958

> <CNNaffinity_variance>
0.3138272762

$$$$



 35 40  0  0  0  0  0  0  0  0999 V2000
   -7.5308   -1.4728  -23.3769 N   0  0  0  0  0  0  0  0  0  0  0  0
   -7.5803   -0.1082  -23.9976 C   0  0  0  0  0  0  0  0  0  0  0  0
   -8.8984    0.5821  -24.1874 C   0  0  0  0  0  0  0  0  0  0  0  0
  -10.1357    1.3917  -24.4396 C   0  0  0  0  0  0  0  0  0  0  0  0
  -11.3398    1.3220  -24.2921 O   0  0  0  0  0  0  0  0  0  0  0  0
   -9.7213    2.6867  -25.0730 N   0  0  0  0  0  0  0  0  0  0  0  0
   -8.2278    2.6775  -25.2122 C   0  0  0  0  0  0  0  0  0  0  0  0
   -7.7193    1.3768  -24.6649 C   0  0  0  0  0  0  0  0  0  0  0  0
   -6.2835    0.9464  -24.6055 C   0  0  0  0  0  0  0  0  0  0  0  0
  -10.1671   -0.0923  -23.7564 C   0  0  0  0  0  0  0  0  0  0  0  0
  -11.4852    0.5980  -23.9462 C   0  0  0  0  0  0  0  0  0  0  0  0
  -12.7539   -0.0764  -23.5153 C   0  0  0  0  0  0  0  0  0  0  0  0
  -14.0721    0.6139  -23.7051 F   0  0  0  0  0  0  0  0  0  0  0  0
  -12.7044   -1.4410  -22.8946 C   0  0  0  0  0  0  0  0  0  0  0  0
  -11.3863   -2.1313  -22.7048 C   0  0  0  0  0  0  0  0  0  0  0  0
  -10.1177   -1.4569  -23.1357 C   0  0  0  0  0  0  0  0  0  0  0  0
   -8.7995   -2.1472  -22.9459 C   0  0  0  0  0  0  0  0  0  0  0  0
   -8.7500   -3.5118  -22.3252 O   0  0  0  0  0  0  0  0  0  0  0  0
  -10.6392    3.7961  -25.4933 C   0  0  0  0  0  0  0  0  0  0  0  0
  -10.5557    4.3524  -26.8839 C   0  0  0  0  0  0  0  0  0  0  0  0
  -11.4736    5.4618  -27.3042 N   0  0  0  0  0  0  0  0  0  0  0  0
  -12.4750    6.0149  -26.3340 C   0  0  0  0  0  0  0  0  0  0  0  0
  -12.5585    5.4586  -24.9434 C   0  0  0  0  0  0  0  0  0  0  0  0
  -13.5599    6.0117  -23.9732 C   0  0  0  0  0  0  0  0  0  0  0  0
  -13.6433    5.4554  -22.5827 C   0  0  0  0  0  0  0  0  0  0  0  0
  -12.7254    4.3460  -22.1623 C   0  0  0  0  0  0  0  0  0  0  0  0
  -11.7240    3.7929  -23.1325 C   0  0  0  0  0  0  0  0  0  0  0  0
  -11.6405    4.3492  -24.5231 C   0  0  0  0  0  0  0  0  0  0  0  0
   -6.2126   -2.1631  -23.1871 C   0  0  0  0  0  0  0  0  0  0  0  0
   -5.7827   -7.2198  -21.7293 C   0  0  0  0  0  0  0  0  0  0  0  0
   -5.9385   -5.9847  -22.5660 C   0  0  0  0  0  0  0  0  0  0  0  0
   -5.9618   -4.5733  -22.0587 N   0  0  0  0  0  0  0  0  0  0  0  0
   -6.1362   -3.6603  -23.2360 C   0  0  0  0  0  0  0  0  0  0  0  0
   -6.2206   -4.5076  -24.4711 C   0  0  0  0  0  0  0  0  0  0  0  0
   -6.0985   -5.9441  -24.0568 O   0  0  0  0  0  0  0  0  0  0  0  0
 30 31  1  0  0  0
 31 32  2  0  0  0
 32 33  1  0  0  0
 33 29  1  0  0  0
 29  1  1  0  0  0
  1  2  1  0  0  0
  3  2  1  0  0  0
  3  4  1  0  0  0
  4  5  2  0  0  0
  4  6  1  0  0  0
  6 19  1  0  0  0
 19 20  2  0  0  0
 20 21  1  0  0  0
 21 22  2  0  0  0
 22 23  1  0  0  0
 23 24  2  0  0  0
 24 25  1  0  0  0
 25 26  2  0  0  0
 26 27  1  0  0  0
 27 28  2  0  0  0
  6  7  1  0  0  0
  7  8  1  0  0  0
  8  9  1  0  0  0
  3 10  1  0  0  0
 10 11  2  0  0  0
 11 12  1  0  0  0
 12 13  1  0  0  0
 12 14  2  0  0  0
 14 15  1  0  0  0
 15 16  2  0  0  0
 16 17  1  0  0  0
 17 18  2  0  0  0
 33 34  2  0  0  0
 34 35  1  0  0  0
 35 31  1  0  0  0
 17  1  1  0  0  0
  8  3  1  0  0  0
 16 10  1  0  0  0
 28 19  1  0  0  0
 28 23  1  0  0  0
M  END
> <minimizedAffinity>
-7.52091

> <CNNscore>
0.3724881113

> <CNNaffinity>
6.2524008751

> <CNN_VS>
2.3289449215

> <CNNaffinity_variance>
0.2372159660

$$$$



 35 40  0  0  0  0  0  0  0  0999 V2000
   -9.3215    2.5827  -24.3035 N   0  0  0  0  0  0  0  0  0  0  0  0
   -8.4024    1.4070  -24.4548 C   0  0  0  0  0  0  0  0  0  0  0  0
   -8.9087    0.0202  -24.1893 C   0  0  0  0  0  0  0  0  0  0  0  0
   -9.2707   -1.4172  -23.9596 C   0  0  0  0  0  0  0  0  0  0  0  0
  -10.2238   -2.0963  -23.6329 O   0  0  0  0  0  0  0  0  0  0  0  0
   -8.0519   -2.2503  -24.2252 N   0  0  0  0  0  0  0  0  0  0  0  0
   -6.9366   -1.3278  -24.6190 C   0  0  0  0  0  0  0  0  0  0  0  0
   -7.4662    0.0754  -24.5968 C   0  0  0  0  0  0  0  0  0  0  0  0
   -6.6895    1.3161  -24.9247 C   0  0  0  0  0  0  0  0  0  0  0  0
  -10.3342   -0.1909  -23.7726 C   0  0  0  0  0  0  0  0  0  0  0  0
  -10.8404   -1.5777  -23.5072 C   0  0  0  0  0  0  0  0  0  0  0  0
  -12.2658   -1.7887  -23.0905 C   0  0  0  0  0  0  0  0  0  0  0  0
  -12.7722   -3.1755  -22.8251 F   0  0  0  0  0  0  0  0  0  0  0  0
  -13.1849   -0.6130  -22.9393 C   0  0  0  0  0  0  0  0  0  0  0  0
  -12.6787    0.7738  -23.2047 C   0  0  0  0  0  0  0  0  0  0  0  0
  -11.2533    0.9848  -23.6214 C   0  0  0  0  0  0  0  0  0  0  0  0
  -10.7469    2.3717  -23.8868 C   0  0  0  0  0  0  0  0  0  0  0  0
  -11.6660    3.5474  -23.7356 O   0  0  0  0  0  0  0  0  0  0  0  0
   -7.9639   -3.7438  -24.1160 C   0  0  0  0  0  0  0  0  0  0  0  0
   -7.3806   -4.3728  -22.8855 C   0  0  0  0  0  0  0  0  0  0  0  0
   -7.2926   -5.8662  -22.7764 N   0  0  0  0  0  0  0  0  0  0  0  0
   -7.7879   -6.7306  -23.8978 C   0  0  0  0  0  0  0  0  0  0  0  0
   -8.3712   -6.1016  -25.1283 C   0  0  0  0  0  0  0  0  0  0  0  0
   -8.8665   -6.9661  -26.2497 C   0  0  0  0  0  0  0  0  0  0  0  0
   -9.4498   -6.3369  -27.4801 C   0  0  0  0  0  0  0  0  0  0  0  0
   -9.5378   -4.8435  -27.5893 C   0  0  0  0  0  0  0  0  0  0  0  0
   -9.0425   -3.9791  -26.4679 C   0  0  0  0  0  0  0  0  0  0  0  0
   -8.4592   -4.6082  -25.2374 C   0  0  0  0  0  0  0  0  0  0  0  0
   -8.8152    3.9695  -24.5690 C   0  0  0  0  0  0  0  0  0  0  0  0
   -6.1338    7.2954  -21.4658 C   0  0  0  0  0  0  0  0  0  0  0  0
   -6.5153    6.0871  -22.2685 C   0  0  0  0  0  0  0  0  0  0  0  0
   -7.7839    5.9120  -23.0496 N   0  0  0  0  0  0  0  0  0  0  0  0
   -7.7478    4.5583  -23.6949 C   0  0  0  0  0  0  0  0  0  0  0  0
   -6.4569    3.8968  -23.3126 C   0  0  0  0  0  0  0  0  0  0  0  0
   -5.6952    4.8417  -22.4310 O   0  0  0  0  0  0  0  0  0  0  0  0
 30 31  1  0  0  0
 31 32  2  0  0  0
 32 33  1  0  0  0
 33 29  1  0  0  0
 29  1  1  0  0  0
  1  2  1  0  0  0
  3  2  1  0  0  0
  3  4  1  0  0  0
  4  5  2  0  0  0
  4  6  1  0  0  0
  6 19  1  0  0  0
 19 20  2  0  0  0
 20 21  1  0  0  0
 21 22  2  0  0  0
 22 23  1  0  0  0
 23 24  2  0  0  0
 24 25  1  0  0  0
 25 26  2  0  0  0
 26 27  1  0  0  0
 27 28  2  0  0  0
  6  7  1  0  0  0
  7  8  1  0  0  0
  8  9  1  0  0  0
  3 10  1  0  0  0
 10 11  2  0  0  0
 11 12  1  0  0  0
 12 13  1  0  0  0
 12 14  2  0  0  0
 14 15  1  0  0  0
 15 16  2  0  0  0
 16 17  1  0  0  0
 17 18  2  0  0  0
 33 34  2  0  0  0
 34 35  1  0  0  0
 35 31  1  0  0  0
 17  1  1  0  0  0
  8  3  1  0  0  0
 16 10  1  0  0  0
 28 19  1  0  0  0
 28 23  1  0  0  0
M  END
> <minimizedAffinity>
-7.84164

> <CNNscore>
0.3479645550

> <CNNaffinity>
6.4295783043

> <CNN_VS>
2.2372653484

> <CNNaffinity_variance>
0.1454660594

$$$$



 35 40  0  0  0  0  0  0  0  0999 V2000
   -8.4890   -5.4025  -24.5823 N   0  0  0  0  0  0  0  0  0  0  0  0
   -7.4246   -5.0829  -23.5749 C   0  0  0  0  0  0  0  0  0  0  0  0
   -7.4705   -3.7871  -22.8207 C   0  0  0  0  0  0  0  0  0  0  0  0
   -7.3849   -2.5381  -21.9945 C   0  0  0  0  0  0  0  0  0  0  0  0
   -7.9845   -1.4962  -21.8177 O   0  0  0  0  0  0  0  0  0  0  0  0
   -6.1662   -2.6394  -21.1259 N   0  0  0  0  0  0  0  0  0  0  0  0
   -5.4986   -3.9511  -21.4152 C   0  0  0  0  0  0  0  0  0  0  0  0
   -6.3047   -4.6604  -22.4626 C   0  0  0  0  0  0  0  0  0  0  0  0
   -5.9987   -6.0067  -23.0490 C   0  0  0  0  0  0  0  0  0  0  0  0
   -8.5809   -2.8109  -23.0738 C   0  0  0  0  0  0  0  0  0  0  0  0
   -8.6269   -1.5152  -22.3196 C   0  0  0  0  0  0  0  0  0  0  0  0
   -9.7373   -0.5390  -22.5728 C   0  0  0  0  0  0  0  0  0  0  0  0
   -9.7832    0.7568  -21.8185 F   0  0  0  0  0  0  0  0  0  0  0  0
  -10.8017   -0.8586  -23.5801 C   0  0  0  0  0  0  0  0  0  0  0  0
  -10.7558   -2.1544  -24.3343 C   0  0  0  0  0  0  0  0  0  0  0  0
   -9.6454   -3.1305  -24.0812 C   0  0  0  0  0  0  0  0  0  0  0  0
   -9.5994   -4.4264  -24.8354 C   0  0  0  0  0  0  0  0  0  0  0  0
  -10.6639   -4.7460  -25.8428 O   0  0  0  0  0  0  0  0  0  0  0  0
   -5.6975   -1.6098  -20.1409 C   0  0  0  0  0  0  0  0  0  0  0  0
   -6.1087   -1.7069  -18.7016 C   0  0  0  0  0  0  0  0  0  0  0  0
   -5.6399   -0.6773  -17.7166 N   0  0  0  0  0  0  0  0  0  0  0  0
   -4.7601    0.4494  -18.1709 C   0  0  0  0  0  0  0  0  0  0  0  0
   -4.3489    0.5464  -19.6102 C   0  0  0  0  0  0  0  0  0  0  0  0
   -3.4690    1.6732  -20.0645 C   0  0  0  0  0  0  0  0  0  0  0  0
   -3.0579    1.7702  -21.5038 C   0  0  0  0  0  0  0  0  0  0  0  0
   -3.5266    0.7406  -22.4888 C   0  0  0  0  0  0  0  0  0  0  0  0
   -4.4065   -0.3861  -22.0345 C   0  0  0  0  0  0  0  0  0  0  0  0
   -4.8176   -0.4832  -20.5952 C   0  0  0  0  0  0  0  0  0  0  0  0
   -8.4431   -6.6983  -25.3365 C   0  0  0  0  0  0  0  0  0  0  0  0
   -4.9709   -7.5525  -29.2217 C   0  0  0  0  0  0  0  0  0  0  0  0
   -6.2092   -7.1470  -28.4788 C   0  0  0  0  0  0  0  0  0  0  0  0
   -6.4360   -7.2831  -27.0023 N   0  0  0  0  0  0  0  0  0  0  0  0
   -7.8052   -6.7543  -26.6930 C   0  0  0  0  0  0  0  0  0  0  0  0
   -8.4247   -6.2914  -27.9783 C   0  0  0  0  0  0  0  0  0  0  0  0
   -7.4382   -6.5341  -29.0820 O   0  0  0  0  0  0  0  0  0  0  0  0
 30 31  1  0  0  0
 31 32  2  0  0  0
 32 33  1  0  0  0
 33 29  1  0  0  0
 29  1  1  0  0  0
  1  2  1  0  0  0
  3  2  1  0  0  0
  3  4  1  0  0  0
  4  5  2  0  0  0
  4  6  1  0  0  0
  6 19  1  0  0  0
 19 20  2  0  0  0
 20 21  1  0  0  0
 21 22  2  0  0  0
 22 23  1  0  0  0
 23 24  2  0  0  0
 24 25  1  0  0  0
 25 26  2  0  0  0
 26 27  1  0  0  0
 27 28  2  0  0  0
  6  7  1  0  0  0
  7  8  1  0  0  0
  8  9  1  0  0  0
  3 10  1  0  0  0
 10 11  2  0  0  0
 11 12  1  0  0  0
 12 13  1  0  0  0
 12 14  2  0  0  0
 14 15  1  0  0  0
 15 16  2  0  0  0
 16 17  1  0  0  0
 17 18  2  0  0  0
 33 34  2  0  0  0
 34 35  1  0  0  0
 35 31  1  0  0  0
 17  1  1  0  0  0
  8  3  1  0  0  0
 16 10  1  0  0  0
 28 19  1  0  0  0
 28 23  1  0  0  0
M  END
> <minimizedAffinity>
-9.65471

> <CNNscore>
0.2232206464

> <CNNaffinity>
6.0579533577

> <CNN_VS>
1.3522602320

> <CNNaffinity_variance>
0.3490187526

$$$$
