


 35 40  0  0  0  0  0  0  0  0999 V2000
   10.7835   -0.3283   22.8692 N   0  0  0  0  0  0  0  0  0  0  0  0
    9.5347   -1.1382   22.6826 C   0  0  0  0  0  0  0  0  0  0  0  0
    9.2890   -2.3455   23.5382 C   0  0  0  0  0  0  0  0  0  0  0  0
    8.9087   -3.5710   24.3149 C   0  0  0  0  0  0  0  0  0  0  0  0
    9.3325   -4.2740   25.2108 O   0  0  0  0  0  0  0  0  0  0  0  0
    7.5860   -4.0550   23.7989 N   0  0  0  0  0  0  0  0  0  0  0  0
    7.1488   -3.1285   22.7032 C   0  0  0  0  0  0  0  0  0  0  0  0
    8.2013   -2.0720   22.5421 C   0  0  0  0  0  0  0  0  0  0  0  0
    8.1714   -0.9406   21.5577 C   0  0  0  0  0  0  0  0  0  0  0  0
   10.2920   -2.7429   24.5804 C   0  0  0  0  0  0  0  0  0  0  0  0
   10.0463   -3.9502   25.4359 C   0  0  0  0  0  0  0  0  0  0  0  0
   11.0492   -4.3476   26.4781 C   0  0  0  0  0  0  0  0  0  0  0  0
   10.8035   -5.5549   27.3337 F   0  0  0  0  0  0  0  0  0  0  0  0
   12.2979   -3.5377   26.6647 C   0  0  0  0  0  0  0  0  0  0  0  0
   12.5437   -2.3304   25.8091 C   0  0  0  0  0  0  0  0  0  0  0  0
   11.5407   -1.9330   24.7670 C   0  0  0  0  0  0  0  0  0  0  0  0
   11.7864   -0.7257   23.9113 C   0  0  0  0  0  0  0  0  0  0  0  0
   13.0351    0.0842   24.0979 O   0  0  0  0  0  0  0  0  0  0  0  0
    6.8328   -5.2548   24.2920 C   0  0  0  0  0  0  0  0  0  0  0  0
    7.2248   -6.6277   23.8320 C   0  0  0  0  0  0  0  0  0  0  0  0
    6.4716   -7.8275   24.3251 N   0  0  0  0  0  0  0  0  0  0  0  0
    5.3264   -7.6544   25.2782 C   0  0  0  0  0  0  0  0  0  0  0  0
    4.9343   -6.2815   25.7382 C   0  0  0  0  0  0  0  0  0  0  0  0
    3.7890   -6.1085   26.6913 C   0  0  0  0  0  0  0  0  0  0  0  0
    3.3970   -4.7356   27.1512 C   0  0  0  0  0  0  0  0  0  0  0  0
    4.1502   -3.5358   26.6581 C   0  0  0  0  0  0  0  0  0  0  0  0
    5.2955   -3.7089   25.7051 C   0  0  0  0  0  0  0  0  0  0  0  0
    5.6875   -5.0817   25.2451 C   0  0  0  0  0  0  0  0  0  0  0  0
   11.0292    0.8791   22.0136 C   0  0  0  0  0  0  0  0  0  0  0  0
   10.6029    6.0452   23.0183 C   0  0  0  0  0  0  0  0  0  0  0  0
   10.2794    4.5869   22.8827 C   0  0  0  0  0  0  0  0  0  0  0  0
   11.2118    3.5186   22.3934 N   0  0  0  0  0  0  0  0  0  0  0  0
   10.4753    2.2122   22.4209 C   0  0  0  0  0  0  0  0  0  0  0  0
    9.0876    2.4730   22.9272 C   0  0  0  0  0  0  0  0  0  0  0  0
    8.9665    3.9407   23.2126 O   0  0  0  0  0  0  0  0  0  0  0  0
 30 31  1  0  0  0
 31 32  2  0  0  0
 32 33  1  0  0  0
 33 29  1  0  0  0
 29  1  1  0  0  0
  1  2  1  0  0  0
  3  2  1  0  0  0
  3  4  1  0  0  0
  4  5  2  0  0  0
  4  6  1  0  0  0
  6 19  1  0  0  0
 19 20  2  0  0  0
 20 21  1  0  0  0
 21 22  2  0  0  0
 22 23  1  0  0  0
 23 24  2  0  0  0
 24 25  1  0  0  0
 25 26  2  0  0  0
 26 27  1  0  0  0
 27 28  2  0  0  0
  6  7  1  0  0  0
  7  8  1  0  0  0
  8  9  1  0  0  0
  3 10  1  0  0  0
 10 11  2  0  0  0
 11 12  1  0  0  0
 12 13  1  0  0  0
 12 14  2  0  0  0
 14 15  1  0  0  0
 15 16  2  0  0  0
 16 17  1  0  0  0
 17 18  2  0  0  0
 33 34  2  0  0  0
 34 35  1  0  0  0
 35 31  1  0  0  0
 17  1  1  0  0  0
  8  3  1  0  0  0
 16 10  1  0  0  0
 28 19  1  0  0  0
 28 23  1  0  0  0
M  END
> <minimizedAffinity>
-8.79389

> <CNNscore>
0.3754054904

> <CNNaffinity>
6.7666826248

> <CNN_VS>
2.5402498245

> <CNNaffinity_variance>
0.1741312295

$$$$



 35 40  0  0  0  0  0  0  0  0999 V2000
    7.5728   -1.5012   24.2201 N   0  0  0  0  0  0  0  0  0  0  0  0
    7.4966   -0.0138   24.0412 C   0  0  0  0  0  0  0  0  0  0  0  0
    8.7245    0.7600   23.6627 C   0  0  0  0  0  0  0  0  0  0  0  0
    9.8625    1.6623   23.2876 C   0  0  0  0  0  0  0  0  0  0  0  0
   11.0482    1.6065   23.0280 O   0  0  0  0  0  0  0  0  0  0  0  0
    9.3382    3.0662   23.2206 N   0  0  0  0  0  0  0  0  0  0  0  0
    7.8762    3.0314   23.5543 C   0  0  0  0  0  0  0  0  0  0  0  0
    7.4970    1.6061   23.8276 C   0  0  0  0  0  0  0  0  0  0  0  0
    6.1301    1.1134   24.2002 C   0  0  0  0  0  0  0  0  0  0  0  0
   10.0288    0.0464   23.4632 C   0  0  0  0  0  0  0  0  0  0  0  0
   11.2568    0.8202   23.0847 C   0  0  0  0  0  0  0  0  0  0  0  0
   12.5610    0.1067   22.8852 C   0  0  0  0  0  0  0  0  0  0  0  0
   13.7891    0.8804   22.5067 F   0  0  0  0  0  0  0  0  0  0  0  0
   12.6372   -1.3807   23.0641 C   0  0  0  0  0  0  0  0  0  0  0  0
   11.4093   -2.1545   23.4425 C   0  0  0  0  0  0  0  0  0  0  0  0
   10.1051   -1.4409   23.6421 C   0  0  0  0  0  0  0  0  0  0  0  0
    8.8770   -2.2147   24.0206 C   0  0  0  0  0  0  0  0  0  0  0  0
    8.9532   -3.7021   24.1995 O   0  0  0  0  0  0  0  0  0  0  0  0
   10.1359    4.2899   22.8796 C   0  0  0  0  0  0  0  0  0  0  0  0
   11.4800    4.1516   22.2283 C   0  0  0  0  0  0  0  0  0  0  0  0
   12.2777    5.3753   21.8874 N   0  0  0  0  0  0  0  0  0  0  0  0
   11.7313    6.7373   22.1978 C   0  0  0  0  0  0  0  0  0  0  0  0
   10.3872    6.8755   22.8492 C   0  0  0  0  0  0  0  0  0  0  0  0
    9.8408    8.2376   23.1597 C   0  0  0  0  0  0  0  0  0  0  0  0
    8.4966    8.3758   23.8110 C   0  0  0  0  0  0  0  0  0  0  0  0
    7.6990    7.1521   24.1519 C   0  0  0  0  0  0  0  0  0  0  0  0
    8.2454    5.7901   23.8415 C   0  0  0  0  0  0  0  0  0  0  0  0
    9.5895    5.6518   23.1901 C   0  0  0  0  0  0  0  0  0  0  0  0
    6.3447   -2.2750   24.5986 C   0  0  0  0  0  0  0  0  0  0  0  0
    4.3294   -4.5692   28.9062 C   0  0  0  0  0  0  0  0  0  0  0  0
    5.2624   -3.8525   27.9758 C   0  0  0  0  0  0  0  0  0  0  0  0
    4.9865   -3.5094   26.5419 N   0  0  0  0  0  0  0  0  0  0  0  0
    6.1888   -2.7980   25.9958 C   0  0  0  0  0  0  0  0  0  0  0  0
    7.2080   -2.7014   27.0922 C   0  0  0  0  0  0  0  0  0  0  0  0
    6.6354   -3.3532   28.3159 O   0  0  0  0  0  0  0  0  0  0  0  0
 30 31  1  0  0  0
 31 32  2  0  0  0
 32 33  1  0  0  0
 33 29  1  0  0  0
 29  1  1  0  0  0
  1  2  1  0  0  0
  3  2  1  0  0  0
  3  4  1  0  0  0
  4  5  2  0  0  0
  4  6  1  0  0  0
  6 19  1  0  0  0
 19 20  2  0  0  0
 20 21  1  0  0  0
 21 22  2  0  0  0
 22 23  1  0  0  0
 23 24  2  0  0  0
 24 25  1  0  0  0
 25 26  2  0  0  0
 26 27  1  0  0  0
 27 28  2  0  0  0
  6  7  1  0  0  0
  7  8  1  0  0  0
  8  9  1  0  0  0
  3 10  1  0  0  0
 10 11  2  0  0  0
 11 12  1  0  0  0
 12 13  1  0  0  0
 12 14  2  0  0  0
 14 15  1  0  0  0
 15 16  2  0  0  0
 16 17  1  0  0  0
 17 18  2  0  0  0
 33 34  2  0  0  0
 34 35  1  0  0  0
 35 31  1  0  0  0
 17  1  1  0  0  0
  8  3  1  0  0  0
 16 10  1  0  0  0
 28 19  1  0  0  0
 28 23  1  0  0  0
M  END
> <minimizedAffinity>
-7.60354

> <CNNscore>
0.2937399149

> <CNNaffinity>
6.4707717896

> <CNN_VS>
1.9007239342

> <CNNaffinity_variance>
0.1857420951

$$$$



 35 40  0  0  0  0  0  0  0  0999 V2000
   10.5609    0.1901   23.1978 N   0  0  0  0  0  0  0  0  0  0  0  0
    9.1678   -0.3527   23.3193 C   0  0  0  0  0  0  0  0  0  0  0  0
    8.8851   -1.4901   24.2554 C   0  0  0  0  0  0  0  0  0  0  0  0
    8.4528   -2.6182   25.1445 C   0  0  0  0  0  0  0  0  0  0  0  0
    8.9176   -3.3956   25.9544 O   0  0  0  0  0  0  0  0  0  0  0  0
    6.9803   -2.8254   24.9478 N   0  0  0  0  0  0  0  0  0  0  0  0
    6.5024   -1.8254   23.9370 C   0  0  0  0  0  0  0  0  0  0  0  0
    7.6797   -1.0002   23.5091 C   0  0  0  0  0  0  0  0  0  0  0  0
    7.6557    0.1186   22.5102 C   0  0  0  0  0  0  0  0  0  0  0  0
    9.9954   -2.0848   25.0700 C   0  0  0  0  0  0  0  0  0  0  0  0
    9.7127   -3.2222   26.0061 C   0  0  0  0  0  0  0  0  0  0  0  0
   10.8230   -3.8168   26.8207 C   0  0  0  0  0  0  0  0  0  0  0  0
   10.5403   -4.9543   27.7568 F   0  0  0  0  0  0  0  0  0  0  0  0
   12.2161   -3.2740   26.6991 C   0  0  0  0  0  0  0  0  0  0  0  0
   12.4988   -2.1366   25.7631 C   0  0  0  0  0  0  0  0  0  0  0  0
   11.3885   -1.5420   24.9485 C   0  0  0  0  0  0  0  0  0  0  0  0
   11.6712   -0.4045   24.0123 C   0  0  0  0  0  0  0  0  0  0  0  0
   13.0642    0.1383   23.8908 O   0  0  0  0  0  0  0  0  0  0  0  0
    6.1341   -3.8523   25.6402 C   0  0  0  0  0  0  0  0  0  0  0  0
    5.7590   -5.1185   24.9287 C   0  0  0  0  0  0  0  0  0  0  0  0
    4.9128   -6.1454   25.6212 N   0  0  0  0  0  0  0  0  0  0  0  0
    4.4419   -5.9062   27.0251 C   0  0  0  0  0  0  0  0  0  0  0  0
    4.8171   -4.6401   27.7365 C   0  0  0  0  0  0  0  0  0  0  0  0
    4.3461   -4.4009   29.1405 C   0  0  0  0  0  0  0  0  0  0  0  0
    4.7213   -3.1347   29.8519 C   0  0  0  0  0  0  0  0  0  0  0  0
    5.5674   -2.1078   29.1594 C   0  0  0  0  0  0  0  0  0  0  0  0
    6.0384   -2.3470   27.7555 C   0  0  0  0  0  0  0  0  0  0  0  0
    5.6632   -3.6131   27.0441 C   0  0  0  0  0  0  0  0  0  0  0  0
   10.8436    1.3276   22.2616 C   0  0  0  0  0  0  0  0  0  0  0  0
   10.8422    6.5351   23.1344 C   0  0  0  0  0  0  0  0  0  0  0  0
   10.3935    5.1092   23.0117 C   0  0  0  0  0  0  0  0  0  0  0  0
   11.2480    3.9486   22.5960 N   0  0  0  0  0  0  0  0  0  0  0  0
   10.3941    2.7155   22.6105 C   0  0  0  0  0  0  0  0  0  0  0  0
    9.0117    3.1139   23.0352 C   0  0  0  0  0  0  0  0  0  0  0  0
    9.0114    4.5933   23.2831 O   0  0  0  0  0  0  0  0  0  0  0  0
 30 31  1  0  0  0
 31 32  2  0  0  0
 32 33  1  0  0  0
 33 29  1  0  0  0
 29  1  1  0  0  0
  1  2  1  0  0  0
  3  2  1  0  0  0
  3  4  1  0  0  0
  4  5  2  0  0  0
  4  6  1  0  0  0
  6 19  1  0  0  0
 19 20  2  0  0  0
 20 21  1  0  0  0
 21 22  2  0  0  0
 22 23  1  0  0  0
 23 24  2  0  0  0
 24 25  1  0  0  0
 25 26  2  0  0  0
 26 27  1  0  0  0
 27 28  2  0  0  0
  6  7  1  0  0  0
  7  8  1  0  0  0
  8  9  1  0  0  0
  3 10  1  0  0  0
 10 11  2  0  0  0
 11 12  1  0  0  0
 12 13  1  0  0  0
 12 14  2  0  0  0
 14 15  1  0  0  0
 15 16  2  0  0  0
 16 17  1  0  0  0
 17 18  2  0  0  0
 33 34  2  0  0  0
 34 35  1  0  0  0
 35 31  1  0  0  0
 17  1  1  0  0  0
  8  3  1  0  0  0
 16 10  1  0  0  0
 28 19  1  0  0  0
 28 23  1  0  0  0
M  END
> <minimizedAffinity>
-7.94571

> <CNNscore>
0.2706075609

> <CNNaffinity>
6.5837335587

> <CNN_VS>
1.7816081047

> <CNNaffinity_variance>
0.2166307271

$$$$



 35 40  0  0  0  0  0  0  0  0999 V2000
    3.8702   -4.8660   26.2333 N   0  0  0  0  0  0  0  0  0  0  0  0
    5.1241   -5.0137   25.4234 C   0  0  0  0  0  0  0  0  0  0  0  0
    6.0854   -3.8675   25.3136 C   0  0  0  0  0  0  0  0  0  0  0  0
    7.1348   -2.8146   25.1133 C   0  0  0  0  0  0  0  0  0  0  0  0
    7.3760   -1.6679   25.4345 O   0  0  0  0  0  0  0  0  0  0  0  0
    8.2080   -3.3904   24.2378 N   0  0  0  0  0  0  0  0  0  0  0  0
    7.8219   -4.7992   23.8969 C   0  0  0  0  0  0  0  0  0  0  0  0
    6.5101   -5.0941   24.5619 C   0  0  0  0  0  0  0  0  0  0  0  0
    5.7554   -6.3883   24.4879 C   0  0  0  0  0  0  0  0  0  0  0  0
    5.7929   -2.5736   26.0138 C   0  0  0  0  0  0  0  0  0  0  0  0
    6.7542   -1.4274   25.9040 C   0  0  0  0  0  0  0  0  0  0  0  0
    6.4616   -0.1335   26.6041 C   0  0  0  0  0  0  0  0  0  0  0  0
    7.4229    1.0128   26.4944 F   0  0  0  0  0  0  0  0  0  0  0  0
    5.2077    0.0142   27.4140 C   0  0  0  0  0  0  0  0  0  0  0  0
    4.2464   -1.1320   27.5238 C   0  0  0  0  0  0  0  0  0  0  0  0
    4.5390   -2.4258   26.8237 C   0  0  0  0  0  0  0  0  0  0  0  0
    3.5776   -3.5721   26.9334 C   0  0  0  0  0  0  0  0  0  0  0  0
    2.3237   -3.4244   27.7433 O   0  0  0  0  0  0  0  0  0  0  0  0
    9.4494   -2.6818   23.7829 C   0  0  0  0  0  0  0  0  0  0  0  0
    9.4419   -1.9045   22.5001 C   0  0  0  0  0  0  0  0  0  0  0  0
   10.6833   -1.1959   22.0452 N   0  0  0  0  0  0  0  0  0  0  0  0
   11.9321   -1.2646   22.8732 C   0  0  0  0  0  0  0  0  0  0  0  0
   11.9396   -2.0420   24.1560 C   0  0  0  0  0  0  0  0  0  0  0  0
   13.1886   -2.1108   24.9841 C   0  0  0  0  0  0  0  0  0  0  0  0
   13.1960   -2.8881   26.2669 C   0  0  0  0  0  0  0  0  0  0  0  0
   11.9546   -3.5967   26.7217 C   0  0  0  0  0  0  0  0  0  0  0  0
   10.7057   -3.5280   25.8937 C   0  0  0  0  0  0  0  0  0  0  0  0
   10.6982   -2.7506   24.6109 C   0  0  0  0  0  0  0  0  0  0  0  0
    2.9088   -6.0123   26.3431 C   0  0  0  0  0  0  0  0  0  0  0  0
    1.0795   -8.1115   21.8567 C   0  0  0  0  0  0  0  0  0  0  0  0
    1.1731   -7.3186   23.1265 C   0  0  0  0  0  0  0  0  0  0  0  0
    2.3556   -7.2656   24.0478 N   0  0  0  0  0  0  0  0  0  0  0  0
    2.0139   -6.3537   25.1887 C   0  0  0  0  0  0  0  0  0  0  0  0
    0.6201   -5.8431   24.9726 C   0  0  0  0  0  0  0  0  0  0  0  0
    0.1004   -6.4396   23.6981 O   0  0  0  0  0  0  0  0  0  0  0  0
 30 31  1  0  0  0
 31 32  2  0  0  0
 32 33  1  0  0  0
 33 29  1  0  0  0
 29  1  1  0  0  0
  1  2  1  0  0  0
  3  2  1  0  0  0
  3  4  1  0  0  0
  4  5  2  0  0  0
  4  6  1  0  0  0
  6 19  1  0  0  0
 19 20  2  0  0  0
 20 21  1  0  0  0
 21 22  2  0  0  0
 22 23  1  0  0  0
 23 24  2  0  0  0
 24 25  1  0  0  0
 25 26  2  0  0  0
 26 27  1  0  0  0
 27 28  2  0  0  0
  6  7  1  0  0  0
  7  8  1  0  0  0
  8  9  1  0  0  0
  3 10  1  0  0  0
 10 11  2  0  0  0
 11 12  1  0  0  0
 12 13  1  0  0  0
 12 14  2  0  0  0
 14 15  1  0  0  0
 15 16  2  0  0  0
 16 17  1  0  0  0
 17 18  2  0  0  0
 33 34  2  0  0  0
 34 35  1  0  0  0
 35 31  1  0  0  0
 17  1  1  0  0  0
  8  3  1  0  0  0
 16 10  1  0  0  0
 28 19  1  0  0  0
 28 23  1  0  0  0
M  END
> <minimizedAffinity>
-7.73338

> <CNNscore>
0.2601557672

> <CNNaffinity>
6.3878550529

> <CNN_VS>
1.6618373394

> <CNNaffinity_variance>
0.0960433781

$$$$



 35 40  0  0  0  0  0  0  0  0999 V2000
    7.2178    4.3990   24.0979 N   0  0  0  0  0  0  0  0  0  0  0  0
    7.9524    3.1594   23.6809 C   0  0  0  0  0  0  0  0  0  0  0  0
    7.8276    1.9046   24.4932 C   0  0  0  0  0  0  0  0  0  0  0  0
    7.7997    0.5828   25.2016 C   0  0  0  0  0  0  0  0  0  0  0  0
    7.2991    0.0602   26.1776 O   0  0  0  0  0  0  0  0  0  0  0  0
    8.6740   -0.3695   24.4408 N   0  0  0  0  0  0  0  0  0  0  0  0
    9.2423    0.3638   23.2621 C   0  0  0  0  0  0  0  0  0  0  0  0
    8.7192    1.7693   23.2945 C   0  0  0  0  0  0  0  0  0  0  0  0
    9.0326    2.8497   22.3023 C   0  0  0  0  0  0  0  0  0  0  0  0
    6.9682    1.8893   25.7225 C   0  0  0  0  0  0  0  0  0  0  0  0
    6.8434    0.6344   26.5347 C   0  0  0  0  0  0  0  0  0  0  0  0
    5.9839    0.6192   27.7640 C   0  0  0  0  0  0  0  0  0  0  0  0
    5.8591   -0.6357   28.5763 F   0  0  0  0  0  0  0  0  0  0  0  0
    5.2493    1.8587   28.1810 C   0  0  0  0  0  0  0  0  0  0  0  0
    5.3741    3.1135   27.3687 C   0  0  0  0  0  0  0  0  0  0  0  0
    6.2335    3.1288   26.1395 C   0  0  0  0  0  0  0  0  0  0  0  0
    6.3584    4.3837   25.3271 C   0  0  0  0  0  0  0  0  0  0  0  0
    5.6238    5.6232   25.7441 O   0  0  0  0  0  0  0  0  0  0  0  0
    8.9343   -1.8033   24.7963 C   0  0  0  0  0  0  0  0  0  0  0  0
    7.8553   -2.8292   24.6134 C   0  0  0  0  0  0  0  0  0  0  0  0
    8.1156   -4.2630   24.9689 N   0  0  0  0  0  0  0  0  0  0  0  0
    9.4549   -4.6710   25.5073 C   0  0  0  0  0  0  0  0  0  0  0  0
   10.5339   -3.6451   25.6902 C   0  0  0  0  0  0  0  0  0  0  0  0
   11.8732   -4.0531   26.2286 C   0  0  0  0  0  0  0  0  0  0  0  0
   12.9521   -3.0272   26.4115 C   0  0  0  0  0  0  0  0  0  0  0  0
   12.6918   -1.5934   26.0560 C   0  0  0  0  0  0  0  0  0  0  0  0
   11.3525   -1.1854   25.5176 C   0  0  0  0  0  0  0  0  0  0  0  0
   10.2736   -2.2113   25.3347 C   0  0  0  0  0  0  0  0  0  0  0  0
    7.3426    5.6538   23.2856 C   0  0  0  0  0  0  0  0  0  0  0  0
   11.9622    8.0397   22.3649 C   0  0  0  0  0  0  0  0  0  0  0  0
   10.6753    7.6250   23.0142 C   0  0  0  0  0  0  0  0  0  0  0  0
    9.6876    6.6393   22.4638 N   0  0  0  0  0  0  0  0  0  0  0  0
    8.5519    6.5283   23.4374 C   0  0  0  0  0  0  0  0  0  0  0  0
    8.8377    7.4454   24.5896 C   0  0  0  0  0  0  0  0  0  0  0  0
   10.1500    8.1232   24.3279 O   0  0  0  0  0  0  0  0  0  0  0  0
 30 31  1  0  0  0
 31 32  2  0  0  0
 32 33  1  0  0  0
 33 29  1  0  0  0
 29  1  1  0  0  0
  1  2  1  0  0  0
  3  2  1  0  0  0
  3  4  1  0  0  0
  4  5  2  0  0  0
  4  6  1  0  0  0
  6 19  1  0  0  0
 19 20  2  0  0  0
 20 21  1  0  0  0
 21 22  2  0  0  0
 22 23  1  0  0  0
 23 24  2  0  0  0
 24 25  1  0  0  0
 25 26  2  0  0  0
 26 27  1  0  0  0
 27 28  2  0  0  0
  6  7  1  0  0  0
  7  8  1  0  0  0
  8  9  1  0  0  0
  3 10  1  0  0  0
 10 11  2  0  0  0
 11 12  1  0  0  0
 12 13  1  0  0  0
 12 14  2  0  0  0
 14 15  1  0  0  0
 15 16  2  0  0  0
 16 17  1  0  0  0
 17 18  2  0  0  0
 33 34  2  0  0  0
 34 35  1  0  0  0
 35 31  1  0  0  0
 17  1  1  0  0  0
  8  3  1  0  0  0
 16 10  1  0  0  0
 28 19  1  0  0  0
 28 23  1  0  0  0
M  END
> <minimizedAffinity>
-7.60088

> <CNNscore>
0.2191474885

> <CNNaffinity>
6.1261868477

> <CNN_VS>
1.3425384760

> <CNNaffinity_variance>
0.2119983882

$$$$



 35 40  0  0  0  0  0  0  0  0999 V2000
    7.2606   -3.5428   23.1521 N   0  0  0  0  0  0  0  0  0  0  0  0
    7.3972   -2.1440   22.6280 C   0  0  0  0  0  0  0  0  0  0  0  0
    8.5511   -1.2897   23.0623 C   0  0  0  0  0  0  0  0  0  0  0  0
    9.6455   -0.3228   23.4049 C   0  0  0  0  0  0  0  0  0  0  0  0
   10.6507   -0.2572   24.0843 O   0  0  0  0  0  0  0  0  0  0  0  0
    9.3881    0.9523   22.6579 N   0  0  0  0  0  0  0  0  0  0  0  0
    8.1346    0.7734   21.8537 C   0  0  0  0  0  0  0  0  0  0  0  0
    7.6173   -0.6122   22.1037 C   0  0  0  0  0  0  0  0  0  0  0  0
    6.3829   -1.2146   21.5008 C   0  0  0  0  0  0  0  0  0  0  0  0
    9.5684   -1.8341   24.0209 C   0  0  0  0  0  0  0  0  0  0  0  0
   10.7222   -0.9798   24.4553 C   0  0  0  0  0  0  0  0  0  0  0  0
   11.7394   -1.5243   25.4138 C   0  0  0  0  0  0  0  0  0  0  0  0
   12.8933   -0.6700   25.8482 F   0  0  0  0  0  0  0  0  0  0  0  0
   11.6028   -2.9231   25.9379 C   0  0  0  0  0  0  0  0  0  0  0  0
   10.4489   -3.7774   25.5036 C   0  0  0  0  0  0  0  0  0  0  0  0
    9.4317   -3.2329   24.5451 C   0  0  0  0  0  0  0  0  0  0  0  0
    8.2778   -4.0873   24.1106 C   0  0  0  0  0  0  0  0  0  0  0  0
    8.1411   -5.4860   24.6348 O   0  0  0  0  0  0  0  0  0  0  0  0
   10.2355    2.1891   22.7066 C   0  0  0  0  0  0  0  0  0  0  0  0
   11.7205    2.0886   22.5207 C   0  0  0  0  0  0  0  0  0  0  0  0
   12.5679    3.3254   22.5694 N   0  0  0  0  0  0  0  0  0  0  0  0
   11.9302    4.6626   22.8039 C   0  0  0  0  0  0  0  0  0  0  0  0
   10.4451    4.7631   22.9898 C   0  0  0  0  0  0  0  0  0  0  0  0
    9.8074    6.1005   23.2244 C   0  0  0  0  0  0  0  0  0  0  0  0
    8.3223    6.2008   23.4102 C   0  0  0  0  0  0  0  0  0  0  0  0
    7.4750    4.9641   23.3616 C   0  0  0  0  0  0  0  0  0  0  0  0
    8.1127    3.6268   23.1270 C   0  0  0  0  0  0  0  0  0  0  0  0
    9.5977    3.5263   22.9411 C   0  0  0  0  0  0  0  0  0  0  0  0
    6.1066   -4.3971   22.7177 C   0  0  0  0  0  0  0  0  0  0  0  0
    3.3212   -8.1117   25.2324 C   0  0  0  0  0  0  0  0  0  0  0  0
    3.9884   -6.8106   24.8980 C   0  0  0  0  0  0  0  0  0  0  0  0
    4.7908   -6.5228   23.6638 N   0  0  0  0  0  0  0  0  0  0  0  0
    5.2688   -5.1032   23.7421 C   0  0  0  0  0  0  0  0  0  0  0  0
    4.7617   -4.5135   25.0248 C   0  0  0  0  0  0  0  0  0  0  0  0
    3.9704   -5.5688   25.7392 O   0  0  0  0  0  0  0  0  0  0  0  0
 30 31  1  0  0  0
 31 32  2  0  0  0
 32 33  1  0  0  0
 33 29  1  0  0  0
 29  1  1  0  0  0
  1  2  1  0  0  0
  3  2  1  0  0  0
  3  4  1  0  0  0
  4  5  2  0  0  0
  4  6  1  0  0  0
  6 19  1  0  0  0
 19 20  2  0  0  0
 20 21  1  0  0  0
 21 22  2  0  0  0
 22 23  1  0  0  0
 23 24  2  0  0  0
 24 25  1  0  0  0
 25 26  2  0  0  0
 26 27  1  0  0  0
 27 28  2  0  0  0
  6  7  1  0  0  0
  7  8  1  0  0  0
  8  9  1  0  0  0
  3 10  1  0  0  0
 10 11  2  0  0  0
 11 12  1  0  0  0
 12 13  1  0  0  0
 12 14  2  0  0  0
 14 15  1  0  0  0
 15 16  2  0  0  0
 16 17  1  0  0  0
 17 18  2  0  0  0
 33 34  2  0  0  0
 34 35  1  0  0  0
 35 31  1  0  0  0
 17  1  1  0  0  0
  8  3  1  0  0  0
 16 10  1  0  0  0
 28 19  1  0  0  0
 28 23  1  0  0  0
M  END
> <minimizedAffinity>
-8.21670

> <CNNscore>
0.2172801346

> <CNNaffinity>
6.3639698029

> <CNN_VS>
1.3827642202

> <CNNaffinity_variance>
0.2863065004

$$$$



 35 40  0  0  0  0  0  0  0  0999 V2000
    6.4314    0.6440   20.9520 N   0  0  0  0  0  0  0  0  0  0  0  0
    7.7387    0.7315   21.6823 C   0  0  0  0  0  0  0  0  0  0  0  0
    8.2849   -0.4734   22.3893 C   0  0  0  0  0  0  0  0  0  0  0  0
    8.9530   -1.5884   23.1379 C   0  0  0  0  0  0  0  0  0  0  0  0
    8.7789   -2.7584   23.4157 O   0  0  0  0  0  0  0  0  0  0  0  0
   10.2347   -1.0597   23.7105 N   0  0  0  0  0  0  0  0  0  0  0  0
   10.3587    0.3821   23.3157 C   0  0  0  0  0  0  0  0  0  0  0  0
    9.1537    0.7444   22.4992 C   0  0  0  0  0  0  0  0  0  0  0  0
    8.8678    2.0886   21.8980 C   0  0  0  0  0  0  0  0  0  0  0  0
    7.5238   -1.7658   22.3661 C   0  0  0  0  0  0  0  0  0  0  0  0
    8.0700   -2.9707   23.0731 C   0  0  0  0  0  0  0  0  0  0  0  0
    7.3089   -4.2630   23.0499 C   0  0  0  0  0  0  0  0  0  0  0  0
    7.8552   -5.4679   23.7569 F   0  0  0  0  0  0  0  0  0  0  0  0
    6.0016   -4.3504   22.3196 C   0  0  0  0  0  0  0  0  0  0  0  0
    5.4554   -3.1456   21.6126 C   0  0  0  0  0  0  0  0  0  0  0  0
    6.2165   -1.8533   21.6358 C   0  0  0  0  0  0  0  0  0  0  0  0
    5.6703   -0.6483   20.9288 C   0  0  0  0  0  0  0  0  0  0  0  0
    4.3630   -0.7358   20.1985 O   0  0  0  0  0  0  0  0  0  0  0  0
   11.2194   -1.8364   24.5333 C   0  0  0  0  0  0  0  0  0  0  0  0
   12.6727   -1.8357   24.1620 C   0  0  0  0  0  0  0  0  0  0  0  0
   13.6574   -2.6124   24.9849 N   0  0  0  0  0  0  0  0  0  0  0  0
   13.1888   -3.3898   26.1790 C   0  0  0  0  0  0  0  0  0  0  0  0
   11.7354   -3.3905   26.5503 C   0  0  0  0  0  0  0  0  0  0  0  0
   11.2668   -4.1680   27.7445 C   0  0  0  0  0  0  0  0  0  0  0  0
    9.8134   -4.1687   28.1157 C   0  0  0  0  0  0  0  0  0  0  0  0
    8.8287   -3.3919   27.2928 C   0  0  0  0  0  0  0  0  0  0  0  0
    9.2974   -2.6145   26.0987 C   0  0  0  0  0  0  0  0  0  0  0  0
   10.7507   -2.6138   25.7274 C   0  0  0  0  0  0  0  0  0  0  0  0
    5.8852    1.8489   20.2450 C   0  0  0  0  0  0  0  0  0  0  0  0
    0.8092    3.1017   19.5061 C   0  0  0  0  0  0  0  0  0  0  0  0
    2.1403    2.8656   20.1560 C   0  0  0  0  0  0  0  0  0  0  0  0
    3.3835    2.3830   19.4693 N   0  0  0  0  0  0  0  0  0  0  0  0
    4.4735    2.2897   20.4956 C   0  0  0  0  0  0  0  0  0  0  0  0
    3.9039    2.7147   21.8167 C   0  0  0  0  0  0  0  0  0  0  0  0
    2.4619    3.0706   21.6067 O   0  0  0  0  0  0  0  0  0  0  0  0
 30 31  1  0  0  0
 31 32  2  0  0  0
 32 33  1  0  0  0
 33 29  1  0  0  0
 29  1  1  0  0  0
  1  2  1  0  0  0
  3  2  1  0  0  0
  3  4  1  0  0  0
  4  5  2  0  0  0
  4  6  1  0  0  0
  6 19  1  0  0  0
 19 20  2  0  0  0
 20 21  1  0  0  0
 21 22  2  0  0  0
 22 23  1  0  0  0
 23 24  2  0  0  0
 24 25  1  0  0  0
 25 26  2  0  0  0
 26 27  1  0  0  0
 27 28  2  0  0  0
  6  7  1  0  0  0
  7  8  1  0  0  0
  8  9  1  0  0  0
  3 10  1  0  0  0
 10 11  2  0  0  0
 11 12  1  0  0  0
 12 13  1  0  0  0
 12 14  2  0  0  0
 14 15  1  0  0  0
 15 16  2  0  0  0
 16 17  1  0  0  0
 17 18  2  0  0  0
 33 34  2  0  0  0
 34 35  1  0  0  0
 35 31  1  0  0  0
 17  1  1  0  0  0
  8  3  1  0  0  0
 16 10  1  0  0  0
 28 19  1  0  0  0
 28 23  1  0  0  0
M  END
> <minimizedAffinity>
-7.91960

> <CNNscore>
0.2084190249

> <CNNaffinity>
6.3774404526

> <CNN_VS>
1.3291798830

> <CNNaffinity_variance>
0.0901601762

$$$$



 35 40  0  0  0  0  0  0  0  0999 V2000
    9.6934    0.1474   22.9131 N   0  0  0  0  0  0  0  0  0  0  0  0
    8.5383   -0.7998   22.7775 C   0  0  0  0  0  0  0  0  0  0  0  0
    8.5135   -2.0712   23.5730 C   0  0  0  0  0  0  0  0  0  0  0  0
    8.3509   -3.3733   24.2998 C   0  0  0  0  0  0  0  0  0  0  0  0
    8.9319   -4.0642   25.1131 O   0  0  0  0  0  0  0  0  0  0  0  0
    7.0550   -3.9895   23.8627 N   0  0  0  0  0  0  0  0  0  0  0  0
    6.4167   -3.0683   22.8658 C   0  0  0  0  0  0  0  0  0  0  0  0
    7.3181   -1.8828   22.6867 C   0  0  0  0  0  0  0  0  0  0  0  0
    7.0680   -0.7139   21.7805 C   0  0  0  0  0  0  0  0  0  0  0  0
    9.6439   -2.3954   24.5043 C   0  0  0  0  0  0  0  0  0  0  0  0
    9.6191   -3.6668   25.2998 C   0  0  0  0  0  0  0  0  0  0  0  0
   10.7495   -3.9910   26.2310 C   0  0  0  0  0  0  0  0  0  0  0  0
   10.7247   -5.2624   27.0266 F   0  0  0  0  0  0  0  0  0  0  0  0
   11.9046   -3.0437   26.3666 C   0  0  0  0  0  0  0  0  0  0  0  0
   11.9294   -1.7724   25.5711 C   0  0  0  0  0  0  0  0  0  0  0  0
   10.7990   -1.4482   24.6399 C   0  0  0  0  0  0  0  0  0  0  0  0
   10.8238   -0.1768   23.8443 C   0  0  0  0  0  0  0  0  0  0  0  0
   11.9789    0.7705   23.9800 O   0  0  0  0  0  0  0  0  0  0  0  0
    6.4957   -5.2973   24.3390 C   0  0  0  0  0  0  0  0  0  0  0  0
    7.0635   -6.5873   23.8257 C   0  0  0  0  0  0  0  0  0  0  0  0
    6.5042   -7.8951   24.3020 N   0  0  0  0  0  0  0  0  0  0  0  0
    5.3771   -7.9129   25.2915 C   0  0  0  0  0  0  0  0  0  0  0  0
    4.8093   -6.6228   25.8048 C   0  0  0  0  0  0  0  0  0  0  0  0
    3.6822   -6.6406   26.7945 C   0  0  0  0  0  0  0  0  0  0  0  0
    3.1144   -5.3506   27.3077 C   0  0  0  0  0  0  0  0  0  0  0  0
    3.6737   -4.0428   26.8314 C   0  0  0  0  0  0  0  0  0  0  0  0
    4.8008   -4.0250   25.8419 C   0  0  0  0  0  0  0  0  0  0  0  0
    5.3686   -5.3150   25.3286 C   0  0  0  0  0  0  0  0  0  0  0  0
    9.7182    1.4188   22.1175 C   0  0  0  0  0  0  0  0  0  0  0  0
    5.2762    4.1561   21.3074 C   0  0  0  0  0  0  0  0  0  0  0  0
    6.5700    3.6784   21.8970 C   0  0  0  0  0  0  0  0  0  0  0  0
    7.4126    2.5512   21.3779 N   0  0  0  0  0  0  0  0  0  0  0  0
    8.6118    2.4202   22.2694 C   0  0  0  0  0  0  0  0  0  0  0  0
    8.5103    3.4665   23.3396 C   0  0  0  0  0  0  0  0  0  0  0  0
    7.2484    4.2441   23.1093 O   0  0  0  0  0  0  0  0  0  0  0  0
 30 31  1  0  0  0
 31 32  2  0  0  0
 32 33  1  0  0  0
 33 29  1  0  0  0
 29  1  1  0  0  0
  1  2  1  0  0  0
  3  2  1  0  0  0
  3  4  1  0  0  0
  4  5  2  0  0  0
  4  6  1  0  0  0
  6 19  1  0  0  0
 19 20  2  0  0  0
 20 21  1  0  0  0
 21 22  2  0  0  0
 22 23  1  0  0  0
 23 24  2  0  0  0
 24 25  1  0  0  0
 25 26  2  0  0  0
 26 27  1  0  0  0
 27 28  2  0  0  0
  6  7  1  0  0  0
  7  8  1  0  0  0
  8  9  1  0  0  0
  3 10  1  0  0  0
 10 11  2  0  0  0
 11 12  1  0  0  0
 12 13  1  0  0  0
 12 14  2  0  0  0
 14 15  1  0  0  0
 15 16  2  0  0  0
 16 17  1  0  0  0
 17 18  2  0  0  0
 33 34  2  0  0  0
 34 35  1  0  0  0
 35 31  1  0  0  0
 17  1  1  0  0  0
  8  3  1  0  0  0
 16 10  1  0  0  0
 28 19  1  0  0  0
 28 23  1  0  0  0
M  END
> <minimizedAffinity>
-8.79877

> <CNNscore>
0.1933729649

> <CNNaffinity>
6.4194006920

> <CNN_VS>
1.2413384914

> <CNNaffinity_variance>
0.3057779670

$$$$



 35 40  0  0  0  0  0  0  0  0999 V2000
    4.8030    2.1561   21.1355 N   0  0  0  0  0  0  0  0  0  0  0  0
    5.6560    0.9225   21.1563 C   0  0  0  0  0  0  0  0  0  0  0  0
    6.3371    0.5029   22.4252 C   0  0  0  0  0  0  0  0  0  0  0  0
    7.0762   -0.0380   23.6131 C   0  0  0  0  0  0  0  0  0  0  0  0
    7.2656    0.2158   24.7862 O   0  0  0  0  0  0  0  0  0  0  0  0
    7.7967   -1.2816   23.1839 N   0  0  0  0  0  0  0  0  0  0  0  0
    7.5028   -1.5094   21.7307 C   0  0  0  0  0  0  0  0  0  0  0  0
    6.6007   -0.4065   21.2618 C   0  0  0  0  0  0  0  0  0  0  0  0
    6.0575   -0.2420   19.8733 C   0  0  0  0  0  0  0  0  0  0  0  0
    6.1651    1.3170   23.6733 C   0  0  0  0  0  0  0  0  0  0  0  0
    6.8461    0.8975   24.9422 C   0  0  0  0  0  0  0  0  0  0  0  0
    6.6742    1.7116   26.1902 C   0  0  0  0  0  0  0  0  0  0  0  0
    7.3552    1.2920   27.4592 F   0  0  0  0  0  0  0  0  0  0  0  0
    5.8212    2.9452   26.1694 C   0  0  0  0  0  0  0  0  0  0  0  0
    5.1401    3.3648   24.9005 C   0  0  0  0  0  0  0  0  0  0  0  0
    5.3121    2.5507   23.6525 C   0  0  0  0  0  0  0  0  0  0  0  0
    4.6310    2.9702   22.3835 C   0  0  0  0  0  0  0  0  0  0  0  0
    3.7780    4.2039   22.3627 O   0  0  0  0  0  0  0  0  0  0  0  0
    8.6596   -2.1458   24.0549 C   0  0  0  0  0  0  0  0  0  0  0  0
    8.0826   -3.3679   24.7056 C   0  0  0  0  0  0  0  0  0  0  0  0
    8.9454   -4.2321   25.5767 N   0  0  0  0  0  0  0  0  0  0  0  0
   10.3853   -3.8740   25.7970 C   0  0  0  0  0  0  0  0  0  0  0  0
   10.9623   -2.6519   25.1463 C   0  0  0  0  0  0  0  0  0  0  0  0
   12.4023   -2.2939   25.3666 C   0  0  0  0  0  0  0  0  0  0  0  0
   12.9792   -1.0717   24.7159 C   0  0  0  0  0  0  0  0  0  0  0  0
   12.1163   -0.2076   23.8448 C   0  0  0  0  0  0  0  0  0  0  0  0
   10.6764   -0.5656   23.6245 C   0  0  0  0  0  0  0  0  0  0  0  0
   10.0994   -1.7877   24.2752 C   0  0  0  0  0  0  0  0  0  0  0  0
    4.1219    2.5757   19.8665 C   0  0  0  0  0  0  0  0  0  0  0  0
   -1.0153    1.5268   20.4904 C   0  0  0  0  0  0  0  0  0  0  0  0
    0.2655    2.2064   20.1064 C   0  0  0  0  0  0  0  0  0  0  0  0
    1.6499    1.6938   20.3728 N   0  0  0  0  0  0  0  0  0  0  0  0
    2.6269    2.6885   19.8197 C   0  0  0  0  0  0  0  0  0  0  0  0
    1.8464    3.8159   19.2114 C   0  0  0  0  0  0  0  0  0  0  0  0
    0.3870    3.5179   19.3887 O   0  0  0  0  0  0  0  0  0  0  0  0
 30 31  1  0  0  0
 31 32  2  0  0  0
 32 33  1  0  0  0
 33 29  1  0  0  0
 29  1  1  0  0  0
  1  2  1  0  0  0
  3  2  1  0  0  0
  3  4  1  0  0  0
  4  5  2  0  0  0
  4  6  1  0  0  0
  6 19  1  0  0  0
 19 20  2  0  0  0
 20 21  1  0  0  0
 21 22  2  0  0  0
 22 23  1  0  0  0
 23 24  2  0  0  0
 24 25  1  0  0  0
 25 26  2  0  0  0
 26 27  1  0  0  0
 27 28  2  0  0  0
  6  7  1  0  0  0
  7  8  1  0  0  0
  8  9  1  0  0  0
  3 10  1  0  0  0
 10 11  2  0  0  0
 11 12  1  0  0  0
 12 13  1  0  0  0
 12 14  2  0  0  0
 14 15  1  0  0  0
 15 16  2  0  0  0
 16 17  1  0  0  0
 17 18  2  0  0  0
 33 34  2  0  0  0
 34 35  1  0  0  0
 35 31  1  0  0  0
 17  1  1  0  0  0
  8  3  1  0  0  0
 16 10  1  0  0  0
 28 19  1  0  0  0
 28 23  1  0  0  0
M  END
> <minimizedAffinity>
-7.94838

> <CNNscore>
0.1764660329

> <CNNaffinity>
6.2050805092

> <CNN_VS>
1.0949859619

> <CNNaffinity_variance>
0.0895083994

$$$$
