


 42 48  0  0  0  0  0  0  0  0999 V2000
    7.0451   -6.5675   24.7770 O   0  0  0  0  0  0  0  0  0  0  0  0
    7.0617   -5.2644   24.0343 C   0  0  0  0  0  0  0  0  0  0  0  0
    8.0946   -4.2273   24.3624 C   0  0  0  0  0  0  0  0  0  0  0  0
    9.1108   -4.4933   25.4331 C   0  0  0  0  0  0  0  0  0  0  0  0
   10.1436   -3.4562   25.7612 C   0  0  0  0  0  0  0  0  0  0  0  0
   10.1602   -2.1531   25.0185 C   0  0  0  0  0  0  0  0  0  0  0  0
   11.3021   -1.3659   25.5902 Cl  0  0  0  0  0  0  0  0  0  0  0  0
    9.1440   -1.8871   23.9477 C   0  0  0  0  0  0  0  0  0  0  0  0
    8.1112   -2.9242   23.6197 C   0  0  0  0  0  0  0  0  0  0  0  0
    7.0950   -2.6582   22.5489 C   0  0  0  0  0  0  0  0  0  0  0  0
    6.0622   -3.6953   22.2208 C   0  0  0  0  0  0  0  0  0  0  0  0
    6.0455   -4.9984   22.9635 N   0  0  0  0  0  0  0  0  0  0  0  0
    6.1477   -2.2524   21.4589 C   0  0  0  0  0  0  0  0  0  0  0  0
    5.0174   -3.0784   20.9203 O   0  0  0  0  0  0  0  0  0  0  0  0
    6.5291   -0.8754   21.0021 N   0  0  0  0  0  0  0  0  0  0  0  0
    7.7121   -0.4302   21.8097 C   0  0  0  0  0  0  0  0  0  0  0  0
    8.0618   -1.5320   22.7657 C   0  0  0  0  0  0  0  0  0  0  0  0
    5.8472   -0.0829   19.9265 C   0  0  0  0  0  0  0  0  0  0  0  0
    6.3535   -0.1423   18.5159 C   0  0  0  0  0  0  0  0  0  0  0  0
    5.6715    0.6503   17.4403 N   0  0  0  0  0  0  0  0  0  0  0  0
    4.4833    1.5022   17.7755 C   0  0  0  0  0  0  0  0  0  0  0  0
    3.9770    1.5615   19.1862 C   0  0  0  0  0  0  0  0  0  0  0  0
    2.7886    2.4134   19.5214 C   0  0  0  0  0  0  0  0  0  0  0  0
    2.2824    2.4727   20.9321 C   0  0  0  0  0  0  0  0  0  0  0  0
    2.9643    1.6802   22.0076 C   0  0  0  0  0  0  0  0  0  0  0  0
    4.1526    0.8283   21.6724 C   0  0  0  0  0  0  0  0  0  0  0  0
    4.6589    0.7690   20.2618 C   0  0  0  0  0  0  0  0  0  0  0  0
    5.0126   -6.0355   22.6354 C   0  0  0  0  0  0  0  0  0  0  0  0
    3.7502   -6.1179   23.4411 C   0  0  0  0  0  0  0  0  0  0  0  0
    3.6155   -5.8096   24.9029 N   0  0  0  0  0  0  0  0  0  0  0  0
    2.1828   -6.0242   25.2918 N   0  0  0  0  0  0  0  0  0  0  0  0
    1.4319   -6.4650   24.0704 C   0  0  0  0  0  0  0  0  0  0  0  0
    2.4006   -6.5229   22.9266 O   0  0  0  0  0  0  0  0  0  0  0  0
    9.1818   -1.5113   23.7633 C   0  0  0  0  0  0  0  0  0  0  0  0
    9.4353   -0.2795   24.5809 N   0  0  0  0  0  0  0  0  0  0  0  0
    9.3313   -0.3083   25.5595 H   0  0  0  0  0  0  0  0  0  0  0  0
    9.8474    0.9959   23.9078 C   0  0  0  0  0  0  0  0  0  0  0  0
   11.2587    1.1702   23.4305 N   0  0  0  0  0  0  0  0  0  0  0  0
   11.6707    2.4457   22.7573 C   0  0  0  0  0  0  0  0  0  0  0  0
   10.6714    3.5470   22.5613 N   0  0  0  0  0  0  0  0  0  0  0  0
    9.2601    3.3728   23.0385 C   0  0  0  0  0  0  0  0  0  0  0  0
    8.8480    2.0973   23.7117 N   0  0  0  0  0  0  0  0  0  0  0  0
  1  2  2  0  0  0
  2  3  1  0  0  0
  3  4  2  0  0  0
  4  5  1  0  0  0
  5  6  2  0  0  0
  6  7  1  0  0  0
  6  8  1  0  0  0
  8  9  2  0  0  0
  9 10  1  0  0  0
 10 11  1  0  0  0
 11 12  1  0  0  0
 12 28  1  0  0  0
 28 29  1  0  0  0
 29 30  2  0  0  0
 30 31  1  0  0  0
 31 32  2  0  0  0
 32 33  1  0  0  0
 10 13  1  0  0  0
 13 14  2  0  0  0
 13 15  1  0  0  0
 15 18  1  0  0  0
 18 19  2  0  0  0
 19 20  1  0  0  0
 20 21  2  0  0  0
 21 22  1  0  0  0
 22 23  2  0  0  0
 23 24  1  0  0  0
 24 25  2  0  0  0
 25 26  1  0  0  0
 26 27  2  0  0  0
 15 16  1  0  0  0
 16 17  1  0  0  0
 17 34  1  0  0  0
 34 35  1  0  0  0
 35 37  1  0  0  0
 37 38  2  0  0  0
 38 39  1  0  0  0
 39 40  2  0  0  0
 40 41  1  0  0  0
 41 42  2  0  0  0
 12  2  1  0  0  0
 33 29  1  0  0  0
 27 18  1  0  0  0
 42 37  1  0  0  0
  9  3  1  0  0  0
 17 10  1  0  0  0
 27 22  1  0  0  0
 35 36  1  0  0  0
M  END
> <minimizedAffinity>
-8.66633

> <CNNscore>
0.5992663503

> <CNNaffinity>
7.1597414017

> <CNN_VS>
4.2905921936

> <CNNaffinity_variance>
0.1140372530

$$$$



 42 48  0  0  0  0  0  0  0  0999 V2000
    4.8642   -2.7412   20.9017 O   0  0  0  0  0  0  0  0  0  0  0  0
    5.9332   -1.8767   21.5016 C   0  0  0  0  0  0  0  0  0  0  0  0
    6.5762   -2.2704   22.7984 C   0  0  0  0  0  0  0  0  0  0  0  0
    6.1502   -3.5285   23.4952 C   0  0  0  0  0  0  0  0  0  0  0  0
    6.7932   -3.9222   24.7919 C   0  0  0  0  0  0  0  0  0  0  0  0
    7.8622   -3.0577   25.3919 C   0  0  0  0  0  0  0  0  0  0  0  0
    8.2773   -3.7362   26.6637 Cl  0  0  0  0  0  0  0  0  0  0  0  0
    8.2882   -1.7995   24.6951 C   0  0  0  0  0  0  0  0  0  0  0  0
    7.6452   -1.4059   23.3984 C   0  0  0  0  0  0  0  0  0  0  0  0
    8.0712   -0.1477   22.7015 C   0  0  0  0  0  0  0  0  0  0  0  0
    7.4282    0.2460   21.4048 C   0  0  0  0  0  0  0  0  0  0  0  0
    6.3592   -0.6185   20.8048 N   0  0  0  0  0  0  0  0  0  0  0  0
    8.5981    1.1320   22.1230 C   0  0  0  0  0  0  0  0  0  0  0  0
    8.1487    1.7719   20.8429 O   0  0  0  0  0  0  0  0  0  0  0  0
    9.6535    1.6595   23.0492 N   0  0  0  0  0  0  0  0  0  0  0  0
    9.7788    0.7059   24.2002 C   0  0  0  0  0  0  0  0  0  0  0  0
    8.8009   -0.4110   23.9853 C   0  0  0  0  0  0  0  0  0  0  0  0
   10.4447    2.9195   22.8580 C   0  0  0  0  0  0  0  0  0  0  0  0
   11.9063    2.8447   22.5298 C   0  0  0  0  0  0  0  0  0  0  0  0
   12.6975    4.1047   22.3386 N   0  0  0  0  0  0  0  0  0  0  0  0
   12.0269    5.4394   22.4756 C   0  0  0  0  0  0  0  0  0  0  0  0
   10.5651    5.5142   22.8039 C   0  0  0  0  0  0  0  0  0  0  0  0
    9.8945    6.8490   22.9409 C   0  0  0  0  0  0  0  0  0  0  0  0
    8.4328    6.9236   23.2692 C   0  0  0  0  0  0  0  0  0  0  0  0
    7.6417    5.6637   23.4604 C   0  0  0  0  0  0  0  0  0  0  0  0
    8.3123    4.3290   23.3233 C   0  0  0  0  0  0  0  0  0  0  0  0
    9.7740    4.2542   22.9951 C   0  0  0  0  0  0  0  0  0  0  0  0
    5.7162   -0.2248   19.5080 C   0  0  0  0  0  0  0  0  0  0  0  0
    4.5562    0.7262   19.5044 C   0  0  0  0  0  0  0  0  0  0  0  0
    4.1531    1.6207   18.3698 N   0  0  0  0  0  0  0  0  0  0  0  0
    2.9435    2.3970   18.7988 N   0  0  0  0  0  0  0  0  0  0  0  0
    2.5990    1.9823   20.1986 C   0  0  0  0  0  0  0  0  0  0  0  0
    3.5957    0.9497   20.6346 O   0  0  0  0  0  0  0  0  0  0  0  0
    8.5897   -1.5852   24.8946 C   0  0  0  0  0  0  0  0  0  0  0  0
    9.4910   -2.7803   24.7981 N   0  0  0  0  0  0  0  0  0  0  0  0
    9.1110   -3.6700   24.6160 H   0  0  0  0  0  0  0  0  0  0  0  0
   10.9713   -2.6199   24.9790 C   0  0  0  0  0  0  0  0  0  0  0  0
   11.6089   -2.9698   26.2909 N   0  0  0  0  0  0  0  0  0  0  0  0
   13.0893   -2.8094   26.4717 C   0  0  0  0  0  0  0  0  0  0  0  0
   13.9321   -2.2991   25.3407 N   0  0  0  0  0  0  0  0  0  0  0  0
   13.2946   -1.9492   24.0289 C   0  0  0  0  0  0  0  0  0  0  0  0
   11.8143   -2.1096   23.8480 N   0  0  0  0  0  0  0  0  0  0  0  0
  1  2  2  0  0  0
  2  3  1  0  0  0
  3  4  2  0  0  0
  4  5  1  0  0  0
  5  6  2  0  0  0
  6  7  1  0  0  0
  6  8  1  0  0  0
  8  9  2  0  0  0
  9 10  1  0  0  0
 10 11  1  0  0  0
 11 12  1  0  0  0
 12 28  1  0  0  0
 28 29  1  0  0  0
 29 30  2  0  0  0
 30 31  1  0  0  0
 31 32  2  0  0  0
 32 33  1  0  0  0
 10 13  1  0  0  0
 13 14  2  0  0  0
 13 15  1  0  0  0
 15 18  1  0  0  0
 18 19  2  0  0  0
 19 20  1  0  0  0
 20 21  2  0  0  0
 21 22  1  0  0  0
 22 23  2  0  0  0
 23 24  1  0  0  0
 24 25  2  0  0  0
 25 26  1  0  0  0
 26 27  2  0  0  0
 15 16  1  0  0  0
 16 17  1  0  0  0
 17 34  1  0  0  0
 34 35  1  0  0  0
 35 37  1  0  0  0
 37 38  2  0  0  0
 38 39  1  0  0  0
 39 40  2  0  0  0
 40 41  1  0  0  0
 41 42  2  0  0  0
 12  2  1  0  0  0
 33 29  1  0  0  0
 27 18  1  0  0  0
 42 37  1  0  0  0
  9  3  1  0  0  0
 17 10  1  0  0  0
 27 22  1  0  0  0
 35 36  1  0  0  0
M  END
> <minimizedAffinity>
-9.36102

> <CNNscore>
0.4193300307

> <CNNaffinity>
7.1829109192

> <CNN_VS>
3.0120103359

> <CNNaffinity_variance>
0.3213662505

$$$$



 42 48  0  0  0  0  0  0  0  0999 V2000
    7.5542   -3.3190   27.4730 O   0  0  0  0  0  0  0  0  0  0  0  0
    7.6219   -2.7156   26.1014 C   0  0  0  0  0  0  0  0  0  0  0  0
    8.9533   -2.4632   25.4580 C   0  0  0  0  0  0  0  0  0  0  0  0
   10.2168   -2.8143   26.1862 C   0  0  0  0  0  0  0  0  0  0  0  0
   11.5480   -2.5619   25.5427 C   0  0  0  0  0  0  0  0  0  0  0  0
   11.6158   -1.9585   24.1711 C   0  0  0  0  0  0  0  0  0  0  0  0
   13.0746   -1.8470   23.8402 Cl  0  0  0  0  0  0  0  0  0  0  0  0
   10.3523   -1.6074   23.4430 C   0  0  0  0  0  0  0  0  0  0  0  0
    9.0210   -1.8598   24.0864 C   0  0  0  0  0  0  0  0  0  0  0  0
    7.7574   -1.5087   23.3582 C   0  0  0  0  0  0  0  0  0  0  0  0
    6.4262   -1.7611   24.0016 C   0  0  0  0  0  0  0  0  0  0  0  0
    6.3584   -2.3645   25.3732 N   0  0  0  0  0  0  0  0  0  0  0  0
    6.5853   -1.1079   22.5124 C   0  0  0  0  0  0  0  0  0  0  0  0
    5.1395   -1.2402   22.8897 O   0  0  0  0  0  0  0  0  0  0  0  0
    7.1127   -0.5516   21.2230 N   0  0  0  0  0  0  0  0  0  0  0  0
    8.6108   -0.6086   21.2720 C   0  0  0  0  0  0  0  0  0  0  0  0
    9.0092   -1.2001   22.5916 C   0  0  0  0  0  0  0  0  0  0  0  0
    6.2869   -0.0300   20.0846 C   0  0  0  0  0  0  0  0  0  0  0  0
    6.3899   -0.6661   18.7302 C   0  0  0  0  0  0  0  0  0  0  0  0
    5.5641   -0.1444   17.5918 N   0  0  0  0  0  0  0  0  0  0  0  0
    4.6353    1.0134   17.8079 C   0  0  0  0  0  0  0  0  0  0  0  0
    4.5323    1.6496   19.1625 C   0  0  0  0  0  0  0  0  0  0  0  0
    3.6035    2.8075   19.3786 C   0  0  0  0  0  0  0  0  0  0  0  0
    3.5005    3.4436   20.7331 C   0  0  0  0  0  0  0  0  0  0  0  0
    4.3263    2.9219   21.8714 C   0  0  0  0  0  0  0  0  0  0  0  0
    5.2551    1.7640   21.6553 C   0  0  0  0  0  0  0  0  0  0  0  0
    5.3581    1.1279   20.3009 C   0  0  0  0  0  0  0  0  0  0  0  0
    5.0271   -2.6169   26.0166 C   0  0  0  0  0  0  0  0  0  0  0  0
    4.9596   -3.2014   27.3963 C   0  0  0  0  0  0  0  0  0  0  0  0
    4.8158   -4.6565   27.7313 N   0  0  0  0  0  0  0  0  0  0  0  0
    4.7915   -4.7879   29.2253 N   0  0  0  0  0  0  0  0  0  0  0  0
    4.9202   -3.4141   29.8138 C   0  0  0  0  0  0  0  0  0  0  0  0
    5.0242   -2.4337   28.6834 O   0  0  0  0  0  0  0  0  0  0  0  0
   10.4131   -1.4408   23.0619 C   0  0  0  0  0  0  0  0  0  0  0  0
   11.1736   -0.3435   23.7457 N   0  0  0  0  0  0  0  0  0  0  0  0
   11.8032   -0.5591   24.4713 H   0  0  0  0  0  0  0  0  0  0  0  0
   10.9749    1.0822   23.3243 C   0  0  0  0  0  0  0  0  0  0  0  0
    9.6376    1.7376   23.5027 N   0  0  0  0  0  0  0  0  0  0  0  0
    9.4389    3.1634   23.0812 C   0  0  0  0  0  0  0  0  0  0  0  0
   10.5776    3.9338   22.4813 N   0  0  0  0  0  0  0  0  0  0  0  0
   11.9150    3.2783   22.3028 C   0  0  0  0  0  0  0  0  0  0  0  0
   12.1136    1.8526   22.7243 N   0  0  0  0  0  0  0  0  0  0  0  0
  1  2  2  0  0  0
  2  3  1  0  0  0
  3  4  2  0  0  0
  4  5  1  0  0  0
  5  6  2  0  0  0
  6  7  1  0  0  0
  6  8  1  0  0  0
  8  9  2  0  0  0
  9 10  1  0  0  0
 10 11  1  0  0  0
 11 12  1  0  0  0
 12 28  1  0  0  0
 28 29  1  0  0  0
 29 30  2  0  0  0
 30 31  1  0  0  0
 31 32  2  0  0  0
 32 33  1  0  0  0
 10 13  1  0  0  0
 13 14  2  0  0  0
 13 15  1  0  0  0
 15 18  1  0  0  0
 18 19  2  0  0  0
 19 20  1  0  0  0
 20 21  2  0  0  0
 21 22  1  0  0  0
 22 23  2  0  0  0
 23 24  1  0  0  0
 24 25  2  0  0  0
 25 26  1  0  0  0
 26 27  2  0  0  0
 15 16  1  0  0  0
 16 17  1  0  0  0
 17 34  1  0  0  0
 34 35  1  0  0  0
 35 37  1  0  0  0
 37 38  2  0  0  0
 38 39  1  0  0  0
 39 40  2  0  0  0
 40 41  1  0  0  0
 41 42  2  0  0  0
 12  2  1  0  0  0
 33 29  1  0  0  0
 27 18  1  0  0  0
 42 37  1  0  0  0
  9  3  1  0  0  0
 17 10  1  0  0  0
 27 22  1  0  0  0
 35 36  1  0  0  0
M  END
> <minimizedAffinity>
-8.99371

> <CNNscore>
0.3334069550

> <CNNaffinity>
6.9576177597

> <CNN_VS>
2.3197181225

> <CNNaffinity_variance>
0.2805320621

$$$$



 42 48  0  0  0  0  0  0  0  0999 V2000
    7.8987   -3.4400   27.4318 O   0  0  0  0  0  0  0  0  0  0  0  0
    7.9166   -2.7995   26.0755 C   0  0  0  0  0  0  0  0  0  0  0  0
    9.2242   -2.4583   25.4245 C   0  0  0  0  0  0  0  0  0  0  0  0
   10.5138   -2.7575   26.1296 C   0  0  0  0  0  0  0  0  0  0  0  0
   11.8213   -2.4163   25.4786 C   0  0  0  0  0  0  0  0  0  0  0  0
   11.8392   -1.7758   24.1223 C   0  0  0  0  0  0  0  0  0  0  0  0
   13.2856   -1.5760   23.7785 Cl  0  0  0  0  0  0  0  0  0  0  0  0
   10.5496   -1.4766   23.4171 C   0  0  0  0  0  0  0  0  0  0  0  0
    9.2421   -1.8178   24.0682 C   0  0  0  0  0  0  0  0  0  0  0  0
    7.9524   -1.5186   23.3630 C   0  0  0  0  0  0  0  0  0  0  0  0
    6.6449   -1.8598   24.0141 C   0  0  0  0  0  0  0  0  0  0  0  0
    6.6270   -2.5003   25.3703 N   0  0  0  0  0  0  0  0  0  0  0  0
    6.7498   -1.1617   22.5405 C   0  0  0  0  0  0  0  0  0  0  0  0
    5.3182   -1.3827   22.9299 O   0  0  0  0  0  0  0  0  0  0  0  0
    7.2302   -0.5451   21.2602 N   0  0  0  0  0  0  0  0  0  0  0  0
    8.7297   -0.5208   21.2915 C   0  0  0  0  0  0  0  0  0  0  0  0
    9.1760   -1.1225   22.5910 C   0  0  0  0  0  0  0  0  0  0  0  0
    6.3633   -0.0412   20.1447 C   0  0  0  0  0  0  0  0  0  0  0  0
    6.4347   -0.6831   18.7909 C   0  0  0  0  0  0  0  0  0  0  0  0
    5.5677   -0.1792   17.6753 N   0  0  0  0  0  0  0  0  0  0  0  0
    4.6295    0.9666   17.9136 C   0  0  0  0  0  0  0  0  0  0  0  0
    4.5581    1.6085   19.2674 C   0  0  0  0  0  0  0  0  0  0  0  0
    3.6198    2.7543   19.5057 C   0  0  0  0  0  0  0  0  0  0  0  0
    3.5485    3.3962   20.8596 C   0  0  0  0  0  0  0  0  0  0  0  0
    4.4154    2.8923   21.9750 C   0  0  0  0  0  0  0  0  0  0  0  0
    5.3537    1.7465   21.7368 C   0  0  0  0  0  0  0  0  0  0  0  0
    5.4250    1.1046   20.3830 C   0  0  0  0  0  0  0  0  0  0  0  0
    5.3194   -2.8415   26.0214 C   0  0  0  0  0  0  0  0  0  0  0  0
    4.9002   -4.2754   26.1559 C   0  0  0  0  0  0  0  0  0  0  0  0
    5.2694   -5.3928   25.2258 N   0  0  0  0  0  0  0  0  0  0  0  0
    4.6355   -6.6517   25.7391 N   0  0  0  0  0  0  0  0  0  0  0  0
    3.8745   -6.3123   26.9864 C   0  0  0  0  0  0  0  0  0  0  0  0
    4.0381   -4.8437   27.2440 O   0  0  0  0  0  0  0  0  0  0  0  0
   10.5966   -1.2973   23.0398 C   0  0  0  0  0  0  0  0  0  0  0  0
   11.2994   -0.1827   23.7565 N   0  0  0  0  0  0  0  0  0  0  0  0
   11.9043   -0.3841   24.5067 H   0  0  0  0  0  0  0  0  0  0  0  0
   11.0807    1.2387   23.3303 C   0  0  0  0  0  0  0  0  0  0  0  0
   12.2154    2.0315   22.7525 N   0  0  0  0  0  0  0  0  0  0  0  0
   11.9966    3.4529   22.3263 C   0  0  0  0  0  0  0  0  0  0  0  0
   10.6432    4.0815   22.4779 N   0  0  0  0  0  0  0  0  0  0  0  0
    9.5085    3.2887   23.0557 C   0  0  0  0  0  0  0  0  0  0  0  0
    9.7272    1.8674   23.4819 N   0  0  0  0  0  0  0  0  0  0  0  0
  1  2  2  0  0  0
  2  3  1  0  0  0
  3  4  2  0  0  0
  4  5  1  0  0  0
  5  6  2  0  0  0
  6  7  1  0  0  0
  6  8  1  0  0  0
  8  9  2  0  0  0
  9 10  1  0  0  0
 10 11  1  0  0  0
 11 12  1  0  0  0
 12 28  1  0  0  0
 28 29  1  0  0  0
 29 30  2  0  0  0
 30 31  1  0  0  0
 31 32  2  0  0  0
 32 33  1  0  0  0
 10 13  1  0  0  0
 13 14  2  0  0  0
 13 15  1  0  0  0
 15 18  1  0  0  0
 18 19  2  0  0  0
 19 20  1  0  0  0
 20 21  2  0  0  0
 21 22  1  0  0  0
 22 23  2  0  0  0
 23 24  1  0  0  0
 24 25  2  0  0  0
 25 26  1  0  0  0
 26 27  2  0  0  0
 15 16  1  0  0  0
 16 17  1  0  0  0
 17 34  1  0  0  0
 34 35  1  0  0  0
 35 37  1  0  0  0
 37 38  2  0  0  0
 38 39  1  0  0  0
 39 40  2  0  0  0
 40 41  1  0  0  0
 41 42  2  0  0  0
 12  2  1  0  0  0
 33 29  1  0  0  0
 27 18  1  0  0  0
 42 37  1  0  0  0
  9  3  1  0  0  0
 17 10  1  0  0  0
 27 22  1  0  0  0
 35 36  1  0  0  0
M  END
> <minimizedAffinity>
-9.28751

> <CNNscore>
0.3201979399

> <CNNaffinity>
6.9698791504

> <CNN_VS>
2.2317409515

> <CNNaffinity_variance>
0.3745213449

$$$$



 42 48  0  0  0  0  0  0  0  0999 V2000
    8.1313   -3.5685   27.4307 O   0  0  0  0  0  0  0  0  0  0  0  0
    8.1048   -2.9119   26.0823 C   0  0  0  0  0  0  0  0  0  0  0  0
    9.3905   -2.5710   25.3888 C   0  0  0  0  0  0  0  0  0  0  0  0
   10.7025   -2.8867   26.0436 C   0  0  0  0  0  0  0  0  0  0  0  0
   11.9880   -2.5457   25.3501 C   0  0  0  0  0  0  0  0  0  0  0  0
   11.9616   -1.8891   24.0017 C   0  0  0  0  0  0  0  0  0  0  0  0
   13.3961   -1.6941   23.6086 Cl  0  0  0  0  0  0  0  0  0  0  0  0
   10.6496   -1.5734   23.3469 C   0  0  0  0  0  0  0  0  0  0  0  0
    9.3640   -1.9144   24.0404 C   0  0  0  0  0  0  0  0  0  0  0  0
    8.0519   -1.5987   23.3856 C   0  0  0  0  0  0  0  0  0  0  0  0
    6.7663   -1.9396   24.0791 C   0  0  0  0  0  0  0  0  0  0  0  0
    6.7928   -2.5962   25.4275 N   0  0  0  0  0  0  0  0  0  0  0  0
    6.8230   -1.2245   22.6111 C   0  0  0  0  0  0  0  0  0  0  0  0
    5.4048   -1.4413   23.0489 O   0  0  0  0  0  0  0  0  0  0  0  0
    7.2613   -0.5955   21.3217 N   0  0  0  0  0  0  0  0  0  0  0  0
    8.7610   -0.5809   21.2994 C   0  0  0  0  0  0  0  0  0  0  0  0
    9.2496   -1.2009   22.5749 C   0  0  0  0  0  0  0  0  0  0  0  0
    6.3583   -0.0729   20.2440 C   0  0  0  0  0  0  0  0  0  0  0  0
    6.3545   -0.7186   18.8902 C   0  0  0  0  0  0  0  0  0  0  0  0
    5.4515   -0.1960   17.8125 N   0  0  0  0  0  0  0  0  0  0  0  0
    4.5523    0.9724   18.0887 C   0  0  0  0  0  0  0  0  0  0  0  0
    4.5562    1.6182   19.4426 C   0  0  0  0  0  0  0  0  0  0  0  0
    3.6570    2.7867   19.7187 C   0  0  0  0  0  0  0  0  0  0  0  0
    3.6609    3.4325   21.0726 C   0  0  0  0  0  0  0  0  0  0  0  0
    4.5639    2.9098   22.1502 C   0  0  0  0  0  0  0  0  0  0  0  0
    5.4630    1.7414   21.8741 C   0  0  0  0  0  0  0  0  0  0  0  0
    5.4592    1.0956   20.5203 C   0  0  0  0  0  0  0  0  0  0  0  0
    5.5071   -2.9372   26.1210 C   0  0  0  0  0  0  0  0  0  0  0  0
    4.8271   -4.2443   25.8401 C   0  0  0  0  0  0  0  0  0  0  0  0
    3.4490   -4.6348   26.2854 N   0  0  0  0  0  0  0  0  0  0  0  0
    3.1760   -6.0223   25.7850 N   0  0  0  0  0  0  0  0  0  0  0  0
    4.3853   -6.4892   25.0303 C   0  0  0  0  0  0  0  0  0  0  0  0
    5.4057   -5.3904   25.0643 O   0  0  0  0  0  0  0  0  0  0  0  0
   10.6842   -1.3899   22.9703 C   0  0  0  0  0  0  0  0  0  0  0  0
   11.4259   -0.2806   23.6552 N   0  0  0  0  0  0  0  0  0  0  0  0
   12.0866   -0.4887   24.3548 H   0  0  0  0  0  0  0  0  0  0  0  0
   11.1612    1.1458   23.2743 C   0  0  0  0  0  0  0  0  0  0  0  0
    9.7970    1.7355   23.4773 N   0  0  0  0  0  0  0  0  0  0  0  0
    9.5322    3.1619   23.0963 C   0  0  0  0  0  0  0  0  0  0  0  0
   10.6316    3.9987   22.5124 N   0  0  0  0  0  0  0  0  0  0  0  0
   11.9958    3.4091   22.3095 C   0  0  0  0  0  0  0  0  0  0  0  0
   12.2606    1.9827   22.6904 N   0  0  0  0  0  0  0  0  0  0  0  0
  1  2  2  0  0  0
  2  3  1  0  0  0
  3  4  2  0  0  0
  4  5  1  0  0  0
  5  6  2  0  0  0
  6  7  1  0  0  0
  6  8  1  0  0  0
  8  9  2  0  0  0
  9 10  1  0  0  0
 10 11  1  0  0  0
 11 12  1  0  0  0
 12 28  1  0  0  0
 28 29  1  0  0  0
 29 30  2  0  0  0
 30 31  1  0  0  0
 31 32  2  0  0  0
 32 33  1  0  0  0
 10 13  1  0  0  0
 13 14  2  0  0  0
 13 15  1  0  0  0
 15 18  1  0  0  0
 18 19  2  0  0  0
 19 20  1  0  0  0
 20 21  2  0  0  0
 21 22  1  0  0  0
 22 23  2  0  0  0
 23 24  1  0  0  0
 24 25  2  0  0  0
 25 26  1  0  0  0
 26 27  2  0  0  0
 15 16  1  0  0  0
 16 17  1  0  0  0
 17 34  1  0  0  0
 34 35  1  0  0  0
 35 37  1  0  0  0
 37 38  2  0  0  0
 38 39  1  0  0  0
 39 40  2  0  0  0
 40 41  1  0  0  0
 41 42  2  0  0  0
 12  2  1  0  0  0
 33 29  1  0  0  0
 27 18  1  0  0  0
 42 37  1  0  0  0
  9  3  1  0  0  0
 17 10  1  0  0  0
 27 22  1  0  0  0
 35 36  1  0  0  0
M  END
> <minimizedAffinity>
-9.15380

> <CNNscore>
0.2764889300

> <CNNaffinity>
6.9634270668

> <CNN_VS>
1.9253104925

> <CNNaffinity_variance>
0.3983614743

$$$$



 42 48  0  0  0  0  0  0  0  0999 V2000
   10.5806   -2.7353   26.6212 O   0  0  0  0  0  0  0  0  0  0  0  0
    9.4941   -2.3726   25.6527 C   0  0  0  0  0  0  0  0  0  0  0  0
    8.0610   -2.6579   25.9919 C   0  0  0  0  0  0  0  0  0  0  0  0
    7.7145   -3.3058   27.2996 C   0  0  0  0  0  0  0  0  0  0  0  0
    6.2815   -3.5910   27.6387 C   0  0  0  0  0  0  0  0  0  0  0  0
    5.1950   -3.2283   26.6702 C   0  0  0  0  0  0  0  0  0  0  0  0
    3.9078   -3.6463   27.3174 Cl  0  0  0  0  0  0  0  0  0  0  0  0
    5.5415   -2.5804   25.3626 C   0  0  0  0  0  0  0  0  0  0  0  0
    6.9745   -2.2952   25.0234 C   0  0  0  0  0  0  0  0  0  0  0  0
    7.3211   -1.6472   23.7157 C   0  0  0  0  0  0  0  0  0  0  0  0
    8.7541   -1.3620   23.3765 C   0  0  0  0  0  0  0  0  0  0  0  0
    9.8406   -1.7247   24.3450 N   0  0  0  0  0  0  0  0  0  0  0  0
    7.5137   -0.9981   22.3771 C   0  0  0  0  0  0  0  0  0  0  0  0
    8.8266   -0.5978   21.7721 O   0  0  0  0  0  0  0  0  0  0  0  0
    6.1629   -0.8197   21.7498 N   0  0  0  0  0  0  0  0  0  0  0  0
    5.1355   -1.3584   22.7007 C   0  0  0  0  0  0  0  0  0  0  0  0
    5.8513   -1.8699   23.9156 C   0  0  0  0  0  0  0  0  0  0  0  0
    5.8879   -0.2095   20.4074 C   0  0  0  0  0  0  0  0  0  0  0  0
    6.7710   -0.5363   19.2400 C   0  0  0  0  0  0  0  0  0  0  0  0
    6.4960    0.0738   17.8975 N   0  0  0  0  0  0  0  0  0  0  0  0
    5.3378    1.0107   17.7227 C   0  0  0  0  0  0  0  0  0  0  0  0
    4.4546    1.3375   18.8902 C   0  0  0  0  0  0  0  0  0  0  0  0
    3.2963    2.2745   18.7153 C   0  0  0  0  0  0  0  0  0  0  0  0
    2.4131    2.6012   19.8829 C   0  0  0  0  0  0  0  0  0  0  0  0
    2.6882    1.9911   21.2252 C   0  0  0  0  0  0  0  0  0  0  0  0
    3.8464    1.0542   21.4001 C   0  0  0  0  0  0  0  0  0  0  0  0
    4.7296    0.7274   20.2326 C   0  0  0  0  0  0  0  0  0  0  0  0
   11.2737   -1.4394   24.0058 C   0  0  0  0  0  0  0  0  0  0  0  0
   12.3700   -1.9433   24.8969 C   0  0  0  0  0  0  0  0  0  0  0  0
   13.4005   -1.1015   25.5892 N   0  0  0  0  0  0  0  0  0  0  0  0
   14.2957   -2.0154   26.3724 N   0  0  0  0  0  0  0  0  0  0  0  0
   13.8184   -3.4222   26.1641 C   0  0  0  0  0  0  0  0  0  0  0  0
   12.6283   -3.3776   25.2522 O   0  0  0  0  0  0  0  0  0  0  0  0
    5.2098   -2.4943   25.1192 C   0  0  0  0  0  0  0  0  0  0  0  0
    4.7676   -3.9270   25.0750 N   0  0  0  0  0  0  0  0  0  0  0  0
    4.0579   -4.2419   25.6804 H   0  0  0  0  0  0  0  0  0  0  0  0
    5.4065   -4.8798   24.1087 C   0  0  0  0  0  0  0  0  0  0  0  0
    6.5355   -5.7592   24.5581 N   0  0  0  0  0  0  0  0  0  0  0  0
    7.1744   -6.7120   23.5917 C   0  0  0  0  0  0  0  0  0  0  0  0
    6.6843   -6.7854   22.1759 N   0  0  0  0  0  0  0  0  0  0  0  0
    5.5553   -5.9060   21.7265 C   0  0  0  0  0  0  0  0  0  0  0  0
    4.9164   -4.9532   22.6929 N   0  0  0  0  0  0  0  0  0  0  0  0
  1  2  2  0  0  0
  2  3  1  0  0  0
  3  4  2  0  0  0
  4  5  1  0  0  0
  5  6  2  0  0  0
  6  7  1  0  0  0
  6  8  1  0  0  0
  8  9  2  0  0  0
  9 10  1  0  0  0
 10 11  1  0  0  0
 11 12  1  0  0  0
 12 28  1  0  0  0
 28 29  1  0  0  0
 29 30  2  0  0  0
 30 31  1  0  0  0
 31 32  2  0  0  0
 32 33  1  0  0  0
 10 13  1  0  0  0
 13 14  2  0  0  0
 13 15  1  0  0  0
 15 18  1  0  0  0
 18 19  2  0  0  0
 19 20  1  0  0  0
 20 21  2  0  0  0
 21 22  1  0  0  0
 22 23  2  0  0  0
 23 24  1  0  0  0
 24 25  2  0  0  0
 25 26  1  0  0  0
 26 27  2  0  0  0
 15 16  1  0  0  0
 16 17  1  0  0  0
 17 34  1  0  0  0
 34 35  1  0  0  0
 35 37  1  0  0  0
 37 38  2  0  0  0
 38 39  1  0  0  0
 39 40  2  0  0  0
 40 41  1  0  0  0
 41 42  2  0  0  0
 12  2  1  0  0  0
 33 29  1  0  0  0
 27 18  1  0  0  0
 42 37  1  0  0  0
  9  3  1  0  0  0
 17 10  1  0  0  0
 27 22  1  0  0  0
 35 36  1  0  0  0
M  END
> <minimizedAffinity>
-7.92018

> <CNNscore>
0.2591342032

> <CNNaffinity>
6.7425737381

> <CNN_VS>
1.7472314835

> <CNNaffinity_variance>
0.2482721061

$$$$



 42 48  0  0  0  0  0  0  0  0999 V2000
   12.0090   -0.7259   25.4465 O   0  0  0  0  0  0  0  0  0  0  0  0
   10.7222   -0.7338   24.6756 C   0  0  0  0  0  0  0  0  0  0  0  0
    9.5471   -1.5141   25.1858 C   0  0  0  0  0  0  0  0  0  0  0  0
    9.6588   -2.2866   26.4667 C   0  0  0  0  0  0  0  0  0  0  0  0
    8.4837   -3.0669   26.9768 C   0  0  0  0  0  0  0  0  0  0  0  0
    7.1969   -3.0748   26.2060 C   0  0  0  0  0  0  0  0  0  0  0  0
    6.2521   -3.9388   26.9876 Cl  0  0  0  0  0  0  0  0  0  0  0  0
    7.0853   -2.3023   24.9250 C   0  0  0  0  0  0  0  0  0  0  0  0
    8.2603   -1.5220   24.4149 C   0  0  0  0  0  0  0  0  0  0  0  0
    8.1487   -0.7495   23.1339 C   0  0  0  0  0  0  0  0  0  0  0  0
    9.3238    0.0308   22.6239 C   0  0  0  0  0  0  0  0  0  0  0  0
   10.6105    0.0387   23.3947 N   0  0  0  0  0  0  0  0  0  0  0  0
    7.8890   -0.0289   21.8443 C   0  0  0  0  0  0  0  0  0  0  0  0
    8.8706    0.8262   21.0990 O   0  0  0  0  0  0  0  0  0  0  0  0
    6.4755   -0.3134   21.4307 N   0  0  0  0  0  0  0  0  0  0  0  0
    5.8616   -1.2099   22.4648 C   0  0  0  0  0  0  0  0  0  0  0  0
    6.8956   -1.4794   23.5174 C   0  0  0  0  0  0  0  0  0  0  0  0
    5.7954    0.2072   20.1993 C   0  0  0  0  0  0  0  0  0  0  0  0
    6.2451   -0.2510   18.8437 C   0  0  0  0  0  0  0  0  0  0  0  0
    5.5650    0.2696   17.6123 N   0  0  0  0  0  0  0  0  0  0  0  0
    4.4352    1.2484   17.7365 C   0  0  0  0  0  0  0  0  0  0  0  0
    3.9855    1.7067   19.0922 C   0  0  0  0  0  0  0  0  0  0  0  0
    2.8557    2.6856   19.2164 C   0  0  0  0  0  0  0  0  0  0  0  0
    2.4061    3.1438   20.5721 C   0  0  0  0  0  0  0  0  0  0  0  0
    3.0862    2.6231   21.8034 C   0  0  0  0  0  0  0  0  0  0  0  0
    4.2160    1.6443   21.6792 C   0  0  0  0  0  0  0  0  0  0  0  0
    4.6656    1.1861   20.3236 C   0  0  0  0  0  0  0  0  0  0  0  0
   11.7857    0.8191   22.8845 C   0  0  0  0  0  0  0  0  0  0  0  0
   11.6952    2.3104   22.7522 C   0  0  0  0  0  0  0  0  0  0  0  0
   10.4952    3.1525   23.0696 N   0  0  0  0  0  0  0  0  0  0  0  0
   10.8471    4.5841   22.7928 N   0  0  0  0  0  0  0  0  0  0  0  0
   12.2648    4.6268   22.3044 C   0  0  0  0  0  0  0  0  0  0  0  0
   12.7889    3.2216   22.2793 O   0  0  0  0  0  0  0  0  0  0  0  0
    6.7093   -2.3296   24.7391 C   0  0  0  0  0  0  0  0  0  0  0  0
    5.7841   -3.5096   24.6978 N   0  0  0  0  0  0  0  0  0  0  0  0
    5.0051   -3.5454   25.2987 H   0  0  0  0  0  0  0  0  0  0  0  0
    6.0458   -4.6348   23.7413 C   0  0  0  0  0  0  0  0  0  0  0  0
    5.3942   -4.6376   22.3902 N   0  0  0  0  0  0  0  0  0  0  0  0
    5.6559   -5.7630   21.4336 C   0  0  0  0  0  0  0  0  0  0  0  0
    6.5693   -6.8855   21.8280 N   0  0  0  0  0  0  0  0  0  0  0  0
    7.2209   -6.8828   23.1791 C   0  0  0  0  0  0  0  0  0  0  0  0
    6.9592   -5.7575   24.1357 N   0  0  0  0  0  0  0  0  0  0  0  0
  1  2  2  0  0  0
  2  3  1  0  0  0
  3  4  2  0  0  0
  4  5  1  0  0  0
  5  6  2  0  0  0
  6  7  1  0  0  0
  6  8  1  0  0  0
  8  9  2  0  0  0
  9 10  1  0  0  0
 10 11  1  0  0  0
 11 12  1  0  0  0
 12 28  1  0  0  0
 28 29  1  0  0  0
 29 30  2  0  0  0
 30 31  1  0  0  0
 31 32  2  0  0  0
 32 33  1  0  0  0
 10 13  1  0  0  0
 13 14  2  0  0  0
 13 15  1  0  0  0
 15 18  1  0  0  0
 18 19  2  0  0  0
 19 20  1  0  0  0
 20 21  2  0  0  0
 21 22  1  0  0  0
 22 23  2  0  0  0
 23 24  1  0  0  0
 24 25  2  0  0  0
 25 26  1  0  0  0
 26 27  2  0  0  0
 15 16  1  0  0  0
 16 17  1  0  0  0
 17 34  1  0  0  0
 34 35  1  0  0  0
 35 37  1  0  0  0
 37 38  2  0  0  0
 38 39  1  0  0  0
 39 40  2  0  0  0
 40 41  1  0  0  0
 41 42  2  0  0  0
 12  2  1  0  0  0
 33 29  1  0  0  0
 27 18  1  0  0  0
 42 37  1  0  0  0
  9  3  1  0  0  0
 17 10  1  0  0  0
 27 22  1  0  0  0
 35 36  1  0  0  0
M  END
> <minimizedAffinity>
-8.85359

> <CNNscore>
0.2307546437

> <CNNaffinity>
6.9177398682

> <CNN_VS>
1.5963006020

> <CNNaffinity_variance>
0.3057778776

$$$$



 42 48  0  0  0  0  0  0  0  0999 V2000
    9.7794   -3.6554   26.8668 O   0  0  0  0  0  0  0  0  0  0  0  0
    9.2800   -2.6295   25.8930 C   0  0  0  0  0  0  0  0  0  0  0  0
   10.2530   -1.8577   25.0517 C   0  0  0  0  0  0  0  0  0  0  0  0
   11.7254   -2.1118   25.1842 C   0  0  0  0  0  0  0  0  0  0  0  0
   12.6983   -1.3401   24.3430 C   0  0  0  0  0  0  0  0  0  0  0  0
   12.1989   -0.3142   23.3692 C   0  0  0  0  0  0  0  0  0  0  0  0
   13.4185    0.2559   22.7075 Cl  0  0  0  0  0  0  0  0  0  0  0  0
   10.7265   -0.0601   23.2367 C   0  0  0  0  0  0  0  0  0  0  0  0
    9.7536   -0.8319   24.0780 C   0  0  0  0  0  0  0  0  0  0  0  0
    8.2812   -0.5778   23.9455 C   0  0  0  0  0  0  0  0  0  0  0  0
    7.3083   -1.3496   24.7868 C   0  0  0  0  0  0  0  0  0  0  0  0
    7.8077   -2.3754   25.7605 N   0  0  0  0  0  0  0  0  0  0  0  0
    6.8455   -0.2166   23.7042 C   0  0  0  0  0  0  0  0  0  0  0  0
    5.6571   -0.8178   24.3943 O   0  0  0  0  0  0  0  0  0  0  0  0
    6.8068    0.8514   22.6516 N   0  0  0  0  0  0  0  0  0  0  0  0
    8.2186    1.1503   22.2424 C   0  0  0  0  0  0  0  0  0  0  0  0
    9.1298    0.2670   23.0421 C   0  0  0  0  0  0  0  0  0  0  0  0
    5.5729    1.5057   22.1044 C   0  0  0  0  0  0  0  0  0  0  0  0
    4.6737    2.2897   23.0135 C   0  0  0  0  0  0  0  0  0  0  0  0
    3.4398    2.9440   22.4663 N   0  0  0  0  0  0  0  0  0  0  0  0
    3.1051    2.8141   21.0099 C   0  0  0  0  0  0  0  0  0  0  0  0
    4.0044    2.0299   20.1007 C   0  0  0  0  0  0  0  0  0  0  0  0
    3.6697    1.9001   18.6443 C   0  0  0  0  0  0  0  0  0  0  0  0
    4.5689    1.1159   17.7352 C   0  0  0  0  0  0  0  0  0  0  0  0
    5.8028    0.4617   18.2825 C   0  0  0  0  0  0  0  0  0  0  0  0
    6.1374    0.5916   19.7389 C   0  0  0  0  0  0  0  0  0  0  0  0
    5.2383    1.3757   20.6480 C   0  0  0  0  0  0  0  0  0  0  0  0
    6.8347   -3.1472   26.6018 C   0  0  0  0  0  0  0  0  0  0  0  0
    6.2461   -2.5222   27.8317 C   0  0  0  0  0  0  0  0  0  0  0  0
    5.7174   -1.1228   27.9428 N   0  0  0  0  0  0  0  0  0  0  0  0
    5.2274   -0.9225   29.3463 N   0  0  0  0  0  0  0  0  0  0  0  0
    5.4533   -2.1981   30.1027 C   0  0  0  0  0  0  0  0  0  0  0  0
    6.0829   -3.1867   29.1666 O   0  0  0  0  0  0  0  0  0  0  0  0
   10.6268    0.2343   22.9538 C   0  0  0  0  0  0  0  0  0  0  0  0
   11.4399    1.3210   23.5925 N   0  0  0  0  0  0  0  0  0  0  0  0
   12.0856    1.1002   24.3021 H   0  0  0  0  0  0  0  0  0  0  0  0
   11.2692    2.7440   23.1502 C   0  0  0  0  0  0  0  0  0  0  0  0
   12.3824    3.4437   22.4282 N   0  0  0  0  0  0  0  0  0  0  0  0
   12.2116    4.8668   21.9858 C   0  0  0  0  0  0  0  0  0  0  0  0
   10.9277    5.5902   22.2655 N   0  0  0  0  0  0  0  0  0  0  0  0
    9.8146    4.8905   22.9875 C   0  0  0  0  0  0  0  0  0  0  0  0
    9.9853    3.4675   23.4299 N   0  0  0  0  0  0  0  0  0  0  0  0
  1  2  2  0  0  0
  2  3  1  0  0  0
  3  4  2  0  0  0
  4  5  1  0  0  0
  5  6  2  0  0  0
  6  7  1  0  0  0
  6  8  1  0  0  0
  8  9  2  0  0  0
  9 10  1  0  0  0
 10 11  1  0  0  0
 11 12  1  0  0  0
 12 28  1  0  0  0
 28 29  1  0  0  0
 29 30  2  0  0  0
 30 31  1  0  0  0
 31 32  2  0  0  0
 32 33  1  0  0  0
 10 13  1  0  0  0
 13 14  2  0  0  0
 13 15  1  0  0  0
 15 18  1  0  0  0
 18 19  2  0  0  0
 19 20  1  0  0  0
 20 21  2  0  0  0
 21 22  1  0  0  0
 22 23  2  0  0  0
 23 24  1  0  0  0
 24 25  2  0  0  0
 25 26  1  0  0  0
 26 27  2  0  0  0
 15 16  1  0  0  0
 16 17  1  0  0  0
 17 34  1  0  0  0
 34 35  1  0  0  0
 35 37  1  0  0  0
 37 38  2  0  0  0
 38 39  1  0  0  0
 39 40  2  0  0  0
 40 41  1  0  0  0
 41 42  2  0  0  0
 12  2  1  0  0  0
 33 29  1  0  0  0
 27 18  1  0  0  0
 42 37  1  0  0  0
  9  3  1  0  0  0
 17 10  1  0  0  0
 27 22  1  0  0  0
 35 36  1  0  0  0
M  END
> <minimizedAffinity>
-8.51054

> <CNNscore>
0.1918687820

> <CNNaffinity>
6.6583909988

> <CNN_VS>
1.2775373459

> <CNNaffinity_variance>
0.5046909451

$$$$



 42 48  0  0  0  0  0  0  0  0999 V2000
   12.5574   -0.4231   25.1479 O   0  0  0  0  0  0  0  0  0  0  0  0
   11.2184   -0.4597   24.4728 C   0  0  0  0  0  0  0  0  0  0  0  0
   10.1174   -1.3086   25.0361 C   0  0  0  0  0  0  0  0  0  0  0  0
   10.3554   -2.1208   26.2745 C   0  0  0  0  0  0  0  0  0  0  0  0
    9.2544   -2.9696   26.8377 C   0  0  0  0  0  0  0  0  0  0  0  0
    7.9154   -3.0062   26.1626 C   0  0  0  0  0  0  0  0  0  0  0  0
    7.0674   -3.9383   26.9765 Cl  0  0  0  0  0  0  0  0  0  0  0  0
    7.6774   -2.1940   24.9242 C   0  0  0  0  0  0  0  0  0  0  0  0
    8.7784   -1.3452   24.3609 C   0  0  0  0  0  0  0  0  0  0  0  0
    8.5405   -0.5330   23.1225 C   0  0  0  0  0  0  0  0  0  0  0  0
    9.6415    0.3159   22.5592 C   0  0  0  0  0  0  0  0  0  0  0  0
   10.9804    0.3525   23.2344 N   0  0  0  0  0  0  0  0  0  0  0  0
    8.1565    0.2213   21.8841 C   0  0  0  0  0  0  0  0  0  0  0  0
    9.0442    1.1447   21.1034 O   0  0  0  0  0  0  0  0  0  0  0  0
    6.7291   -0.1098   21.5634 N   0  0  0  0  0  0  0  0  0  0  0  0
    6.2309   -1.0689   22.6036 C   0  0  0  0  0  0  0  0  0  0  0  0
    7.3503   -1.3304   23.5671 C   0  0  0  0  0  0  0  0  0  0  0  0
    5.9388    0.4242   20.4057 C   0  0  0  0  0  0  0  0  0  0  0  0
    6.2203   -0.0650   19.0161 C   0  0  0  0  0  0  0  0  0  0  0  0
    5.4300    0.4690   17.8584 N   0  0  0  0  0  0  0  0  0  0  0  0
    4.3581    1.4924   18.0906 C   0  0  0  0  0  0  0  0  0  0  0  0
    4.0766    1.9817   19.4803 C   0  0  0  0  0  0  0  0  0  0  0  0
    3.0047    3.0051   19.7124 C   0  0  0  0  0  0  0  0  0  0  0  0
    2.7233    3.4943   21.1022 C   0  0  0  0  0  0  0  0  0  0  0  0
    3.5136    2.9602   22.2597 C   0  0  0  0  0  0  0  0  0  0  0  0
    4.5855    1.9368   22.0276 C   0  0  0  0  0  0  0  0  0  0  0  0
    4.8670    1.4476   20.6380 C   0  0  0  0  0  0  0  0  0  0  0  0
   12.0814    1.2014   22.6711 C   0  0  0  0  0  0  0  0  0  0  0  0
   11.9232    2.6918   22.6106 C   0  0  0  0  0  0  0  0  0  0  0  0
   12.9765    3.6739   22.1909 N   0  0  0  0  0  0  0  0  0  0  0  0
   12.3882    5.0508   22.2801 N   0  0  0  0  0  0  0  0  0  0  0  0
   10.9713    4.9197   22.7548 C   0  0  0  0  0  0  0  0  0  0  0  0
   10.6840    3.4617   22.9591 O   0  0  0  0  0  0  0  0  0  0  0  0
    7.2902   -2.2311   24.7650 C   0  0  0  0  0  0  0  0  0  0  0  0
    6.2645   -3.3236   24.8314 N   0  0  0  0  0  0  0  0  0  0  0  0
    5.5578   -3.2943   25.5162 H   0  0  0  0  0  0  0  0  0  0  0  0
    6.3153   -4.4605   23.8544 C   0  0  0  0  0  0  0  0  0  0  0  0
    7.1245   -5.6838   24.1687 N   0  0  0  0  0  0  0  0  0  0  0  0
    7.1753   -6.8209   23.1916 C   0  0  0  0  0  0  0  0  0  0  0  0
    6.4171   -6.7346   21.9003 N   0  0  0  0  0  0  0  0  0  0  0  0
    5.6079   -5.5112   21.5860 C   0  0  0  0  0  0  0  0  0  0  0  0
    5.5571   -4.3743   22.5630 N   0  0  0  0  0  0  0  0  0  0  0  0
  1  2  2  0  0  0
  2  3  1  0  0  0
  3  4  2  0  0  0
  4  5  1  0  0  0
  5  6  2  0  0  0
  6  7  1  0  0  0
  6  8  1  0  0  0
  8  9  2  0  0  0
  9 10  1  0  0  0
 10 11  1  0  0  0
 11 12  1  0  0  0
 12 28  1  0  0  0
 28 29  1  0  0  0
 29 30  2  0  0  0
 30 31  1  0  0  0
 31 32  2  0  0  0
 32 33  1  0  0  0
 10 13  1  0  0  0
 13 14  2  0  0  0
 13 15  1  0  0  0
 15 18  1  0  0  0
 18 19  2  0  0  0
 19 20  1  0  0  0
 20 21  2  0  0  0
 21 22  1  0  0  0
 22 23  2  0  0  0
 23 24  1  0  0  0
 24 25  2  0  0  0
 25 26  1  0  0  0
 26 27  2  0  0  0
 15 16  1  0  0  0
 16 17  1  0  0  0
 17 34  1  0  0  0
 34 35  1  0  0  0
 35 37  1  0  0  0
 37 38  2  0  0  0
 38 39  1  0  0  0
 39 40  2  0  0  0
 40 41  1  0  0  0
 41 42  2  0  0  0
 12  2  1  0  0  0
 33 29  1  0  0  0
 27 18  1  0  0  0
 42 37  1  0  0  0
  9  3  1  0  0  0
 17 10  1  0  0  0
 27 22  1  0  0  0
 35 36  1  0  0  0
M  END
> <minimizedAffinity>
-8.88138

> <CNNscore>
0.1855642945

> <CNNaffinity>
6.8146348000

> <CNN_VS>
1.2645529509

> <CNNaffinity_variance>
0.4230838716

$$$$
