


 39 44  0  0  0  0  0  0  0  0999 V2000
  -12.4627   -0.4733  -23.2318 C   0  0  0  0  0  0  0  0  0  0  0  0
  -11.8066    0.8420  -23.5312 C   0  0  0  0  0  0  0  0  0  0  0  0
  -12.8071    1.8999  -23.8912 C   0  0  0  0  0  0  0  0  0  0  0  0
  -12.0589    3.1695  -24.1712 N   0  0  0  0  0  0  0  0  0  0  0  0
  -10.5959    2.8961  -23.9841 C   0  0  0  0  0  0  0  0  0  0  0  0
   -9.4841    3.8873  -24.1615 O   0  0  0  0  0  0  0  0  0  0  0  0
  -10.4399    1.4577  -23.5886 C   0  0  0  0  0  0  0  0  0  0  0  0
   -9.1444    2.2071  -23.6872 C   0  0  0  0  0  0  0  0  0  0  0  0
   -7.8492    1.5072  -23.3996 N   0  0  0  0  0  0  0  0  0  0  0  0
   -7.8496    0.0579  -23.0133 C   0  0  0  0  0  0  0  0  0  0  0  0
   -6.5545   -0.6421  -22.7257 O   0  0  0  0  0  0  0  0  0  0  0  0
   -9.1452   -0.6917  -22.9147 C   0  0  0  0  0  0  0  0  0  0  0  0
   -9.1457   -2.1411  -22.5284 C   0  0  0  0  0  0  0  0  0  0  0  0
  -10.4412   -2.8906  -22.4298 C   0  0  0  0  0  0  0  0  0  0  0  0
  -11.7364   -2.1907  -22.7174 C   0  0  0  0  0  0  0  0  0  0  0  0
  -13.0320   -2.9402  -22.6188 Cl  0  0  0  0  0  0  0  0  0  0  0  0
  -11.7359   -0.7413  -23.1037 C   0  0  0  0  0  0  0  0  0  0  0  0
  -10.4404    0.0082  -23.2023 C   0  0  0  0  0  0  0  0  0  0  0  0
  -12.6668    4.4820  -24.5684 C   0  0  0  0  0  0  0  0  0  0  0  0
  -13.4438    5.2826  -23.5659 C   0  0  0  0  0  0  0  0  0  0  0  0
  -14.0518    6.5951  -23.9631 N   0  0  0  0  0  0  0  0  0  0  0  0
  -13.8827    7.1068  -25.3629 C   0  0  0  0  0  0  0  0  0  0  0  0
  -13.1056    6.3061  -26.3655 C   0  0  0  0  0  0  0  0  0  0  0  0
  -12.9365    6.8180  -27.7654 C   0  0  0  0  0  0  0  0  0  0  0  0
  -12.1595    6.0172  -28.7679 C   0  0  0  0  0  0  0  0  0  0  0  0
  -11.5516    4.7048  -28.3706 C   0  0  0  0  0  0  0  0  0  0  0  0
  -11.7207    4.1930  -26.9708 C   0  0  0  0  0  0  0  0  0  0  0  0
  -12.4977    4.9937  -25.9683 C   0  0  0  0  0  0  0  0  0  0  0  0
   -6.5536    2.2568  -23.4982 C   0  0  0  0  0  0  0  0  0  0  0  0
   -6.2384    3.3426  -22.5125 C   0  0  0  0  0  0  0  0  0  0  0  0
   -4.8194    3.5832  -22.0901 N   0  0  0  0  0  0  0  0  0  0  0  0
   -4.1161    4.8412  -22.5060 C   0  0  0  0  0  0  0  0  0  0  0  0
   -2.6971    5.0818  -22.0836 C   0  0  0  0  0  0  0  0  0  0  0  0
   -1.9812    4.0645  -21.2455 O   0  0  0  0  0  0  0  0  0  0  0  0
   -2.6844    2.8065  -20.8296 C   0  0  0  0  0  0  0  0  0  0  0  0
   -2.9237    1.4710  -20.1899 C   0  0  0  0  0  0  0  0  0  0  0  0
   -1.3485    2.5833  -20.1851 C   0  0  0  0  0  0  0  0  0  0  0  0
   -4.1035    2.5658  -21.2519 C   0  0  0  0  0  0  0  0  0  0  0  0
   -5.3061    4.2750  -22.6601 H   0  0  0  0  0  0  0  0  0  0  0  0
  2  1  1  0  0  0
  2  3  1  0  0  0
  3  4  1  0  0  0
  4 19  1  0  0  0
 19 20  2  0  0  0
 20 21  1  0  0  0
 21 22  2  0  0  0
 22 23  1  0  0  0
 23 24  2  0  0  0
 24 25  1  0  0  0
 25 26  2  0  0  0
 26 27  1  0  0  0
 27 28  2  0  0  0
  4  5  1  0  0  0
  5  6  2  0  0  0
  5  7  1  0  0  0
  7  8  1  0  0  0
  8  9  1  0  0  0
  9 29  1  0  0  0
 29 30  1  0  0  0
 31 30  1  0  0  0
 31 32  1  0  0  0
 32 33  1  0  0  0
 33 34  1  0  0  0
 34 35  1  0  0  0
 35 36  1  0  0  0
 35 37  1  0  0  0
 35 38  1  0  0  0
  9 10  1  0  0  0
 10 11  2  0  0  0
 10 12  1  0  0  0
 12 13  2  0  0  0
 13 14  1  0  0  0
 14 15  2  0  0  0
 15 16  1  0  0  0
 15 17  1  0  0  0
 17 18  2  0  0  0
  7  2  1  0  0  0
 38 31  1  0  0  0
 18 12  1  0  0  0
 28 19  1  0  0  0
 18  7  1  0  0  0
 28 23  1  0  0  0
 31 39  1  0  0  0
M  CHG 1  31   1
M  END
> <minimizedAffinity>
-8.14061

> <CNNscore>
0.3291240931

> <CNNaffinity>
6.4603929520

> <CNN_VS>
2.1262710094

> <CNNaffinity_variance>
0.0246748198

$$$$



 39 44  0  0  0  0  0  0  0  0999 V2000
  -11.5244   -1.5466  -23.2928 C   0  0  0  0  0  0  0  0  0  0  0  0
  -10.0252   -1.5729  -23.3367 C   0  0  0  0  0  0  0  0  0  0  0  0
   -9.4840   -2.9669  -23.2198 C   0  0  0  0  0  0  0  0  0  0  0  0
   -7.9870   -2.8890  -23.2737 N   0  0  0  0  0  0  0  0  0  0  0  0
   -7.6030   -1.4468  -23.4239 C   0  0  0  0  0  0  0  0  0  0  0  0
   -6.2048   -0.9120  -23.5185 O   0  0  0  0  0  0  0  0  0  0  0  0
   -8.8627   -0.6333  -23.4628 C   0  0  0  0  0  0  0  0  0  0  0  0
   -7.6076    0.1797  -23.5797 C   0  0  0  0  0  0  0  0  0  0  0  0
   -7.6903    1.6708  -23.7201 N   0  0  0  0  0  0  0  0  0  0  0  0
   -9.0280    2.3489  -23.7436 C   0  0  0  0  0  0  0  0  0  0  0  0
   -9.1106    3.8400  -23.8841 O   0  0  0  0  0  0  0  0  0  0  0  0
  -10.2832    1.5359  -23.6268 C   0  0  0  0  0  0  0  0  0  0  0  0
  -11.6209    2.2140  -23.6504 C   0  0  0  0  0  0  0  0  0  0  0  0
  -12.8760    1.4009  -23.5335 C   0  0  0  0  0  0  0  0  0  0  0  0
  -12.7933   -0.0902  -23.3931 C   0  0  0  0  0  0  0  0  0  0  0  0
  -14.0485   -0.9032  -23.2762 Cl  0  0  0  0  0  0  0  0  0  0  0  0
  -11.4556   -0.7683  -23.3695 C   0  0  0  0  0  0  0  0  0  0  0  0
  -10.2005    0.0447  -23.4864 C   0  0  0  0  0  0  0  0  0  0  0  0
   -7.0402   -4.0496  -23.1918 C   0  0  0  0  0  0  0  0  0  0  0  0
   -6.2888   -4.3162  -21.9213 C   0  0  0  0  0  0  0  0  0  0  0  0
   -5.3420   -5.4767  -21.8394 N   0  0  0  0  0  0  0  0  0  0  0  0
   -5.1466   -6.3706  -23.0280 C   0  0  0  0  0  0  0  0  0  0  0  0
   -5.8981   -6.1039  -24.2985 C   0  0  0  0  0  0  0  0  0  0  0  0
   -5.7027   -6.9979  -25.4872 C   0  0  0  0  0  0  0  0  0  0  0  0
   -6.4542   -6.7312  -26.7576 C   0  0  0  0  0  0  0  0  0  0  0  0
   -7.4010   -5.5707  -26.8395 C   0  0  0  0  0  0  0  0  0  0  0  0
   -7.5963   -4.6768  -25.6509 C   0  0  0  0  0  0  0  0  0  0  0  0
   -6.8449   -4.9434  -24.3804 C   0  0  0  0  0  0  0  0  0  0  0  0
   -6.4351    2.4838  -23.8369 C   0  0  0  0  0  0  0  0  0  0  0  0
   -6.1119    3.5178  -22.7994 C   0  0  0  0  0  0  0  0  0  0  0  0
   -4.7633    3.5254  -22.1428 N   0  0  0  0  0  0  0  0  0  0  0  0
   -3.8075    4.6511  -22.4056 C   0  0  0  0  0  0  0  0  0  0  0  0
   -2.4589    4.6587  -21.7490 C   0  0  0  0  0  0  0  0  0  0  0  0
   -2.0661    3.5405  -20.8295 O   0  0  0  0  0  0  0  0  0  0  0  0
   -3.0218    2.4148  -20.5667 C   0  0  0  0  0  0  0  0  0  0  0  0
   -3.5762    1.1376  -20.0085 C   0  0  0  0  0  0  0  0  0  0  0  0
   -1.8658    1.9787  -19.7162 C   0  0  0  0  0  0  0  0  0  0  0  0
   -4.3705    2.4072  -21.2234 C   0  0  0  0  0  0  0  0  0  0  0  0
   -5.0304    4.2857  -22.7680 H   0  0  0  0  0  0  0  0  0  0  0  0
  2  1  1  0  0  0
  2  3  1  0  0  0
  3  4  1  0  0  0
  4 19  1  0  0  0
 19 20  2  0  0  0
 20 21  1  0  0  0
 21 22  2  0  0  0
 22 23  1  0  0  0
 23 24  2  0  0  0
 24 25  1  0  0  0
 25 26  2  0  0  0
 26 27  1  0  0  0
 27 28  2  0  0  0
  4  5  1  0  0  0
  5  6  2  0  0  0
  5  7  1  0  0  0
  7  8  1  0  0  0
  8  9  1  0  0  0
  9 29  1  0  0  0
 29 30  1  0  0  0
 31 30  1  0  0  0
 31 32  1  0  0  0
 32 33  1  0  0  0
 33 34  1  0  0  0
 34 35  1  0  0  0
 35 36  1  0  0  0
 35 37  1  0  0  0
 35 38  1  0  0  0
  9 10  1  0  0  0
 10 11  2  0  0  0
 10 12  1  0  0  0
 12 13  2  0  0  0
 13 14  1  0  0  0
 14 15  2  0  0  0
 15 16  1  0  0  0
 15 17  1  0  0  0
 17 18  2  0  0  0
  7  2  1  0  0  0
 38 31  1  0  0  0
 18 12  1  0  0  0
 28 19  1  0  0  0
 18  7  1  0  0  0
 28 23  1  0  0  0
 31 39  1  0  0  0
M  CHG 1  31   1
M  END
> <minimizedAffinity>
-8.59585

> <CNNscore>
0.2358089685

> <CNNaffinity>
6.3740215302

> <CNN_VS>
1.5030514002

> <CNNaffinity_variance>
0.1262163818

$$$$



 39 44  0  0  0  0  0  0  0  0999 V2000
   -7.2136   -0.1282  -20.8286 C   0  0  0  0  0  0  0  0  0  0  0  0
   -8.3157   -0.2987  -21.8318 C   0  0  0  0  0  0  0  0  0  0  0  0
   -9.1527    0.9391  -21.9628 C   0  0  0  0  0  0  0  0  0  0  0  0
  -10.2202    0.6711  -22.9819 N   0  0  0  0  0  0  0  0  0  0  0  0
  -10.0429   -0.7324  -23.4807 C   0  0  0  0  0  0  0  0  0  0  0  0
  -10.8934   -1.4164  -24.5097 O   0  0  0  0  0  0  0  0  0  0  0  0
   -8.8659   -1.3318  -22.7699 C   0  0  0  0  0  0  0  0  0  0  0  0
   -9.5238   -2.2582  -23.7491 C   0  0  0  0  0  0  0  0  0  0  0  0
   -8.9905   -3.6469  -23.9424 N   0  0  0  0  0  0  0  0  0  0  0  0
   -7.7995   -4.1091  -23.1565 C   0  0  0  0  0  0  0  0  0  0  0  0
   -7.2663   -5.4977  -23.3498 O   0  0  0  0  0  0  0  0  0  0  0  0
   -7.1415   -3.1826  -22.1772 C   0  0  0  0  0  0  0  0  0  0  0  0
   -5.9505   -3.6448  -21.3913 C   0  0  0  0  0  0  0  0  0  0  0  0
   -5.2926   -2.7184  -20.4121 C   0  0  0  0  0  0  0  0  0  0  0  0
   -5.8258   -1.3298  -20.2188 C   0  0  0  0  0  0  0  0  0  0  0  0
   -5.1679   -0.4033  -19.2395 Cl  0  0  0  0  0  0  0  0  0  0  0  0
   -7.0169   -0.8676  -21.0047 C   0  0  0  0  0  0  0  0  0  0  0  0
   -7.6747   -1.7940  -21.9839 C   0  0  0  0  0  0  0  0  0  0  0  0
  -11.2790    1.6370  -23.4246 C   0  0  0  0  0  0  0  0  0  0  0  0
  -12.7096    1.4127  -23.0334 C   0  0  0  0  0  0  0  0  0  0  0  0
  -13.7684    2.3785  -23.4761 N   0  0  0  0  0  0  0  0  0  0  0  0
  -13.3966    3.5687  -24.3099 C   0  0  0  0  0  0  0  0  0  0  0  0
  -11.9660    3.7930  -24.7010 C   0  0  0  0  0  0  0  0  0  0  0  0
  -11.5942    4.9833  -25.5348 C   0  0  0  0  0  0  0  0  0  0  0  0
  -10.1635    5.2075  -25.9259 C   0  0  0  0  0  0  0  0  0  0  0  0
   -9.1048    4.2417  -25.4832 C   0  0  0  0  0  0  0  0  0  0  0  0
   -9.4766    3.0515  -24.6495 C   0  0  0  0  0  0  0  0  0  0  0  0
  -10.9071    2.8272  -24.2584 C   0  0  0  0  0  0  0  0  0  0  0  0
   -9.6485   -4.5733  -24.9217 C   0  0  0  0  0  0  0  0  0  0  0  0
   -9.3751   -4.4302  -26.3895 C   0  0  0  0  0  0  0  0  0  0  0  0
   -8.4985   -5.4259  -27.0897 N   0  0  0  0  0  0  0  0  0  0  0  0
   -9.0212   -6.1828  -28.2746 C   0  0  0  0  0  0  0  0  0  0  0  0
   -8.1447   -7.1785  -28.9747 C   0  0  0  0  0  0  0  0  0  0  0  0
   -6.7454   -7.4174  -28.4900 O   0  0  0  0  0  0  0  0  0  0  0  0
   -6.2227   -6.6606  -27.3051 C   0  0  0  0  0  0  0  0  0  0  0  0
   -5.2821   -6.1933  -26.2342 C   0  0  0  0  0  0  0  0  0  0  0  0
   -5.0195   -7.4940  -27.6333 C   0  0  0  0  0  0  0  0  0  0  0  0
   -7.0993   -5.6649  -26.6049 C   0  0  0  0  0  0  0  0  0  0  0  0
   -9.4500   -5.2635  -27.4193 H   0  0  0  0  0  0  0  0  0  0  0  0
  2  1  1  0  0  0
  2  3  1  0  0  0
  3  4  1  0  0  0
  4 19  1  0  0  0
 19 20  2  0  0  0
 20 21  1  0  0  0
 21 22  2  0  0  0
 22 23  1  0  0  0
 23 24  2  0  0  0
 24 25  1  0  0  0
 25 26  2  0  0  0
 26 27  1  0  0  0
 27 28  2  0  0  0
  4  5  1  0  0  0
  5  6  2  0  0  0
  5  7  1  0  0  0
  7  8  1  0  0  0
  8  9  1  0  0  0
  9 29  1  0  0  0
 29 30  1  0  0  0
 31 30  1  0  0  0
 31 32  1  0  0  0
 32 33  1  0  0  0
 33 34  1  0  0  0
 34 35  1  0  0  0
 35 36  1  0  0  0
 35 37  1  0  0  0
 35 38  1  0  0  0
  9 10  1  0  0  0
 10 11  2  0  0  0
 10 12  1  0  0  0
 12 13  2  0  0  0
 13 14  1  0  0  0
 14 15  2  0  0  0
 15 16  1  0  0  0
 15 17  1  0  0  0
 17 18  2  0  0  0
  7  2  1  0  0  0
 38 31  1  0  0  0
 18 12  1  0  0  0
 28 19  1  0  0  0
 18  7  1  0  0  0
 28 23  1  0  0  0
 31 39  1  0  0  0
M  CHG 1  31   1
M  END
> <minimizedAffinity>
-9.10831

> <CNNscore>
0.2105684131

> <CNNaffinity>
6.3028612137

> <CNN_VS>
1.3271834850

> <CNNaffinity_variance>
0.1557749063

$$$$



 39 44  0  0  0  0  0  0  0  0999 V2000
   -7.2316   -0.0127  -21.1694 C   0  0  0  0  0  0  0  0  0  0  0  0
   -8.4338   -0.1299  -22.0589 C   0  0  0  0  0  0  0  0  0  0  0  0
   -9.2145    1.1495  -22.1200 C   0  0  0  0  0  0  0  0  0  0  0  0
  -10.3888    0.9330  -23.0277 N   0  0  0  0  0  0  0  0  0  0  0  0
  -10.3339   -0.4802  -23.5277 C   0  0  0  0  0  0  0  0  0  0  0  0
  -11.3150   -1.1235  -24.4624 O   0  0  0  0  0  0  0  0  0  0  0  0
   -9.1256   -1.1371  -22.9290 C   0  0  0  0  0  0  0  0  0  0  0  0
   -9.9229   -2.0323  -23.8305 C   0  0  0  0  0  0  0  0  0  0  0  0
   -9.4836   -3.4479  -24.0612 N   0  0  0  0  0  0  0  0  0  0  0  0
   -8.2469   -3.9682  -23.3905 C   0  0  0  0  0  0  0  0  0  0  0  0
   -7.8076   -5.3837  -23.6213 O   0  0  0  0  0  0  0  0  0  0  0  0
   -7.4495   -3.0729  -22.4889 C   0  0  0  0  0  0  0  0  0  0  0  0
   -6.2129   -3.5932  -21.8182 C   0  0  0  0  0  0  0  0  0  0  0  0
   -5.4156   -2.6980  -20.9167 C   0  0  0  0  0  0  0  0  0  0  0  0
   -5.8549   -1.2824  -20.6859 C   0  0  0  0  0  0  0  0  0  0  0  0
   -5.0575   -0.3872  -19.7843 Cl  0  0  0  0  0  0  0  0  0  0  0  0
   -7.0915   -0.7621  -21.3566 C   0  0  0  0  0  0  0  0  0  0  0  0
   -7.8889   -1.6574  -22.2582 C   0  0  0  0  0  0  0  0  0  0  0  0
  -11.4345    1.9509  -23.3746 C   0  0  0  0  0  0  0  0  0  0  0  0
  -12.7410    1.9650  -22.6379 C   0  0  0  0  0  0  0  0  0  0  0  0
  -13.7867    2.9829  -22.9848 N   0  0  0  0  0  0  0  0  0  0  0  0
  -13.5258    3.9867  -24.0685 C   0  0  0  0  0  0  0  0  0  0  0  0
  -12.2192    3.9726  -24.8052 C   0  0  0  0  0  0  0  0  0  0  0  0
  -11.9584    4.9765  -25.8889 C   0  0  0  0  0  0  0  0  0  0  0  0
  -10.6518    4.9624  -26.6255 C   0  0  0  0  0  0  0  0  0  0  0  0
   -9.6062    3.9444  -26.2786 C   0  0  0  0  0  0  0  0  0  0  0  0
   -9.8671    2.9406  -25.1950 C   0  0  0  0  0  0  0  0  0  0  0  0
  -11.1736    2.9547  -24.4583 C   0  0  0  0  0  0  0  0  0  0  0  0
  -10.2810   -4.3431  -24.9628 C   0  0  0  0  0  0  0  0  0  0  0  0
   -9.8992   -4.4861  -26.4063 C   0  0  0  0  0  0  0  0  0  0  0  0
   -8.4962   -4.8656  -26.7770 N   0  0  0  0  0  0  0  0  0  0  0  0
   -8.1156   -6.3121  -26.8906 C   0  0  0  0  0  0  0  0  0  0  0  0
   -6.7126   -6.6916  -27.2613 C   0  0  0  0  0  0  0  0  0  0  0  0
   -5.6900   -5.6246  -27.5183 O   0  0  0  0  0  0  0  0  0  0  0  0
   -6.0706   -4.1782  -27.4046 C   0  0  0  0  0  0  0  0  0  0  0  0
   -5.9492   -2.6832  -27.4218 C   0  0  0  0  0  0  0  0  0  0  0  0
   -4.6254   -4.0384  -27.7812 C   0  0  0  0  0  0  0  0  0  0  0  0
   -7.4737   -3.7987  -27.0340 C   0  0  0  0  0  0  0  0  0  0  0  0
   -9.1915   -5.5912  -26.6022 H   0  0  0  0  0  0  0  0  0  0  0  0
  2  1  1  0  0  0
  2  3  1  0  0  0
  3  4  1  0  0  0
  4 19  1  0  0  0
 19 20  2  0  0  0
 20 21  1  0  0  0
 21 22  2  0  0  0
 22 23  1  0  0  0
 23 24  2  0  0  0
 24 25  1  0  0  0
 25 26  2  0  0  0
 26 27  1  0  0  0
 27 28  2  0  0  0
  4  5  1  0  0  0
  5  6  2  0  0  0
  5  7  1  0  0  0
  7  8  1  0  0  0
  8  9  1  0  0  0
  9 29  1  0  0  0
 29 30  1  0  0  0
 31 30  1  0  0  0
 31 32  1  0  0  0
 32 33  1  0  0  0
 33 34  1  0  0  0
 34 35  1  0  0  0
 35 36  1  0  0  0
 35 37  1  0  0  0
 35 38  1  0  0  0
  9 10  1  0  0  0
 10 11  2  0  0  0
 10 12  1  0  0  0
 12 13  2  0  0  0
 13 14  1  0  0  0
 14 15  2  0  0  0
 15 16  1  0  0  0
 15 17  1  0  0  0
 17 18  2  0  0  0
  7  2  1  0  0  0
 38 31  1  0  0  0
 18 12  1  0  0  0
 28 19  1  0  0  0
 18  7  1  0  0  0
 28 23  1  0  0  0
 31 39  1  0  0  0
M  CHG 1  31   1
M  END
> <minimizedAffinity>
-8.53388

> <CNNscore>
0.1830618829

> <CNNaffinity>
6.0794610977

> <CNN_VS>
1.1129175425

> <CNNaffinity_variance>
0.5079047084

$$$$



 39 44  0  0  0  0  0  0  0  0999 V2000
  -10.4985    2.6946  -23.6723 C   0  0  0  0  0  0  0  0  0  0  0  0
   -9.2551    1.8696  -23.5188 C   0  0  0  0  0  0  0  0  0  0  0  0
   -8.0133    2.7090  -23.5756 C   0  0  0  0  0  0  0  0  0  0  0  0
   -6.8314    1.7997  -23.4139 N   0  0  0  0  0  0  0  0  0  0  0  0
   -7.3427    0.3983  -23.2572 C   0  0  0  0  0  0  0  0  0  0  0  0
   -6.5034   -0.8305  -23.0687 O   0  0  0  0  0  0  0  0  0  0  0  0
   -8.8407    0.4415  -23.3221 C   0  0  0  0  0  0  0  0  0  0  0  0
   -8.2780   -0.9350  -23.1259 C   0  0  0  0  0  0  0  0  0  0  0  0
   -9.1997   -2.1131  -23.0137 N   0  0  0  0  0  0  0  0  0  0  0  0
  -10.6841   -1.9147  -23.0977 C   0  0  0  0  0  0  0  0  0  0  0  0
  -11.6058   -3.0928  -22.9855 O   0  0  0  0  0  0  0  0  0  0  0  0
  -11.2469   -0.5381  -23.2938 C   0  0  0  0  0  0  0  0  0  0  0  0
  -12.7313   -0.3397  -23.3778 C   0  0  0  0  0  0  0  0  0  0  0  0
  -13.2940    1.0368  -23.5739 C   0  0  0  0  0  0  0  0  0  0  0  0
  -12.3723    2.2149  -23.6861 C   0  0  0  0  0  0  0  0  0  0  0  0
  -12.9351    3.5914  -23.8823 Cl  0  0  0  0  0  0  0  0  0  0  0  0
  -10.8879    2.0165  -23.6022 C   0  0  0  0  0  0  0  0  0  0  0  0
  -10.3252    0.6399  -23.4060 C   0  0  0  0  0  0  0  0  0  0  0  0
   -5.3910    2.2183  -23.4096 C   0  0  0  0  0  0  0  0  0  0  0  0
   -4.7842    2.8304  -24.6371 C   0  0  0  0  0  0  0  0  0  0  0  0
   -3.3438    3.2490  -24.6328 N   0  0  0  0  0  0  0  0  0  0  0  0
   -2.5102    3.0555  -23.4009 C   0  0  0  0  0  0  0  0  0  0  0  0
   -3.1170    2.4433  -22.1733 C   0  0  0  0  0  0  0  0  0  0  0  0
   -2.2834    2.2498  -20.9413 C   0  0  0  0  0  0  0  0  0  0  0  0
   -2.8903    1.6376  -19.7137 C   0  0  0  0  0  0  0  0  0  0  0  0
   -4.3307    1.2191  -19.7181 C   0  0  0  0  0  0  0  0  0  0  0  0
   -5.1642    1.4126  -20.9500 C   0  0  0  0  0  0  0  0  0  0  0  0
   -4.5574    2.0247  -22.1776 C   0  0  0  0  0  0  0  0  0  0  0  0
   -8.6369   -3.4897  -22.8176 C   0  0  0  0  0  0  0  0  0  0  0  0
   -8.1001   -4.2547  -23.9908 C   0  0  0  0  0  0  0  0  0  0  0  0
   -8.3203   -3.7435  -25.3837 N   0  0  0  0  0  0  0  0  0  0  0  0
   -9.3709   -4.3670  -26.2542 C   0  0  0  0  0  0  0  0  0  0  0  0
   -9.5911   -3.8557  -27.6470 C   0  0  0  0  0  0  0  0  0  0  0  0
   -8.7608   -2.7210  -28.1695 O   0  0  0  0  0  0  0  0  0  0  0  0
   -7.7103   -2.0975  -27.2991 C   0  0  0  0  0  0  0  0  0  0  0  0
   -6.6026   -1.1866  -26.8594 C   0  0  0  0  0  0  0  0  0  0  0  0
   -7.5458   -1.2699  -28.5393 C   0  0  0  0  0  0  0  0  0  0  0  0
   -7.4900   -2.6088  -25.9062 C   0  0  0  0  0  0  0  0  0  0  0  0
   -8.8849   -4.5151  -25.0284 H   0  0  0  0  0  0  0  0  0  0  0  0
  2  1  1  0  0  0
  2  3  1  0  0  0
  3  4  1  0  0  0
  4 19  1  0  0  0
 19 20  2  0  0  0
 20 21  1  0  0  0
 21 22  2  0  0  0
 22 23  1  0  0  0
 23 24  2  0  0  0
 24 25  1  0  0  0
 25 26  2  0  0  0
 26 27  1  0  0  0
 27 28  2  0  0  0
  4  5  1  0  0  0
  5  6  2  0  0  0
  5  7  1  0  0  0
  7  8  1  0  0  0
  8  9  1  0  0  0
  9 29  1  0  0  0
 29 30  1  0  0  0
 31 30  1  0  0  0
 31 32  1  0  0  0
 32 33  1  0  0  0
 33 34  1  0  0  0
 34 35  1  0  0  0
 35 36  1  0  0  0
 35 37  1  0  0  0
 35 38  1  0  0  0
  9 10  1  0  0  0
 10 11  2  0  0  0
 10 12  1  0  0  0
 12 13  2  0  0  0
 13 14  1  0  0  0
 14 15  2  0  0  0
 15 16  1  0  0  0
 15 17  1  0  0  0
 17 18  2  0  0  0
  7  2  1  0  0  0
 38 31  1  0  0  0
 18 12  1  0  0  0
 28 19  1  0  0  0
 18  7  1  0  0  0
 28 23  1  0  0  0
 31 39  1  0  0  0
M  CHG 1  31   1
M  END
> <minimizedAffinity>
-8.03000

> <CNNscore>
0.1681072414

> <CNNaffinity>
6.1440458298

> <CNN_VS>
1.0328586102

> <CNNaffinity_variance>
0.2036642730

$$$$



 39 44  0  0  0  0  0  0  0  0999 V2000
  -10.7288    2.4061  -23.4411 C   0  0  0  0  0  0  0  0  0  0  0  0
   -9.4738    1.5851  -23.4125 C   0  0  0  0  0  0  0  0  0  0  0  0
   -8.2421    2.4412  -23.4176 C   0  0  0  0  0  0  0  0  0  0  0  0
   -7.0474    1.5347  -23.3879 N   0  0  0  0  0  0  0  0  0  0  0  0
   -7.5407    0.1183  -23.3644 C   0  0  0  0  0  0  0  0  0  0  0  0
   -6.6847   -1.1130  -23.3316 O   0  0  0  0  0  0  0  0  0  0  0  0
   -9.0403    0.1495  -23.3796 C   0  0  0  0  0  0  0  0  0  0  0  0
   -8.4592   -1.2329  -23.3464 C   0  0  0  0  0  0  0  0  0  0  0  0
   -9.3661   -2.4276  -23.3314 N   0  0  0  0  0  0  0  0  0  0  0  0
  -10.8541   -2.2399  -23.3496 C   0  0  0  0  0  0  0  0  0  0  0  0
  -11.7610   -3.4346  -23.3345 O   0  0  0  0  0  0  0  0  0  0  0  0
  -11.4354   -0.8575  -23.3828 C   0  0  0  0  0  0  0  0  0  0  0  0
  -12.9234   -0.6698  -23.4010 C   0  0  0  0  0  0  0  0  0  0  0  0
  -13.5046    0.7127  -23.4343 C   0  0  0  0  0  0  0  0  0  0  0  0
  -12.5977    1.9074  -23.4493 C   0  0  0  0  0  0  0  0  0  0  0  0
  -13.1789    3.2898  -23.4825 Cl  0  0  0  0  0  0  0  0  0  0  0  0
  -11.1096    1.7196  -23.4311 C   0  0  0  0  0  0  0  0  0  0  0  0
  -10.5285    0.3372  -23.3979 C   0  0  0  0  0  0  0  0  0  0  0  0
   -5.6114    1.9683  -23.3826 C   0  0  0  0  0  0  0  0  0  0  0  0
   -5.0031    2.5632  -24.6179 C   0  0  0  0  0  0  0  0  0  0  0  0
   -3.5672    2.9969  -24.6126 N   0  0  0  0  0  0  0  0  0  0  0  0
   -2.7396    2.8356  -23.3719 C   0  0  0  0  0  0  0  0  0  0  0  0
   -3.3480    2.2407  -22.1366 C   0  0  0  0  0  0  0  0  0  0  0  0
   -2.5204    2.0794  -20.8960 C   0  0  0  0  0  0  0  0  0  0  0  0
   -3.1289    1.4845  -19.6607 C   0  0  0  0  0  0  0  0  0  0  0  0
   -4.5647    1.0509  -19.6661 C   0  0  0  0  0  0  0  0  0  0  0  0
   -5.3923    1.2121  -20.9067 C   0  0  0  0  0  0  0  0  0  0  0  0
   -4.7840    1.8070  -22.1419 C   0  0  0  0  0  0  0  0  0  0  0  0
   -8.7848   -3.8101  -23.2981 C   0  0  0  0  0  0  0  0  0  0  0  0
   -7.4406   -4.0734  -23.9093 C   0  0  0  0  0  0  0  0  0  0  0  0
   -7.3003   -5.0899  -25.0034 N   0  0  0  0  0  0  0  0  0  0  0  0
   -6.1899   -6.0972  -24.9535 C   0  0  0  0  0  0  0  0  0  0  0  0
   -6.0496   -7.1137  -26.0475 C   0  0  0  0  0  0  0  0  0  0  0  0
   -7.0197   -7.1230  -27.1915 O   0  0  0  0  0  0  0  0  0  0  0  0
   -8.1301   -6.1158  -27.2415 C   0  0  0  0  0  0  0  0  0  0  0  0
   -9.3374   -5.3718  -27.7304 C   0  0  0  0  0  0  0  0  0  0  0  0
   -8.4092   -6.8739  -28.5054 C   0  0  0  0  0  0  0  0  0  0  0  0
   -8.2704   -5.0992  -26.1474 C   0  0  0  0  0  0  0  0  0  0  0  0
   -6.6406   -5.0836  -24.2255 H   0  0  0  0  0  0  0  0  0  0  0  0
  2  1  1  0  0  0
  2  3  1  0  0  0
  3  4  1  0  0  0
  4 19  1  0  0  0
 19 20  2  0  0  0
 20 21  1  0  0  0
 21 22  2  0  0  0
 22 23  1  0  0  0
 23 24  2  0  0  0
 24 25  1  0  0  0
 25 26  2  0  0  0
 26 27  1  0  0  0
 27 28  2  0  0  0
  4  5  1  0  0  0
  5  6  2  0  0  0
  5  7  1  0  0  0
  7  8  1  0  0  0
  8  9  1  0  0  0
  9 29  1  0  0  0
 29 30  1  0  0  0
 31 30  1  0  0  0
 31 32  1  0  0  0
 32 33  1  0  0  0
 33 34  1  0  0  0
 34 35  1  0  0  0
 35 36  1  0  0  0
 35 37  1  0  0  0
 35 38  1  0  0  0
  9 10  1  0  0  0
 10 11  2  0  0  0
 10 12  1  0  0  0
 12 13  2  0  0  0
 13 14  1  0  0  0
 14 15  2  0  0  0
 15 16  1  0  0  0
 15 17  1  0  0  0
 17 18  2  0  0  0
  7  2  1  0  0  0
 38 31  1  0  0  0
 18 12  1  0  0  0
 28 19  1  0  0  0
 18  7  1  0  0  0
 28 23  1  0  0  0
 31 39  1  0  0  0
M  CHG 1  31   1
M  END
> <minimizedAffinity>
-8.74855

> <CNNscore>
0.1425574571

> <CNNaffinity>
6.2216715813

> <CNN_VS>
0.8869456649

> <CNNaffinity_variance>
0.3757376075

$$$$



 39 44  0  0  0  0  0  0  0  0999 V2000
   -7.5953   -4.9274  -23.5229 C   0  0  0  0  0  0  0  0  0  0  0  0
   -7.2958   -3.4685  -23.3438 C   0  0  0  0  0  0  0  0  0  0  0  0
   -6.8488   -3.1540  -21.9470 C   0  0  0  0  0  0  0  0  0  0  0  0
   -6.5752   -1.6813  -21.8684 N   0  0  0  0  0  0  0  0  0  0  0  0
   -6.8532   -1.0856  -23.2167 C   0  0  0  0  0  0  0  0  0  0  0  0
   -6.7108    0.3607  -23.5879 O   0  0  0  0  0  0  0  0  0  0  0  0
   -7.2986   -2.1902  -24.1286 C   0  0  0  0  0  0  0  0  0  0  0  0
   -7.2522   -0.8409  -24.7822 C   0  0  0  0  0  0  0  0  0  0  0  0
   -7.6334   -0.6931  -26.2254 N   0  0  0  0  0  0  0  0  0  0  0  0
   -8.0609   -1.8946  -27.0150 C   0  0  0  0  0  0  0  0  0  0  0  0
   -8.4420   -1.7468  -28.4583 O   0  0  0  0  0  0  0  0  0  0  0  0
   -8.1072   -3.2440  -26.3615 C   0  0  0  0  0  0  0  0  0  0  0  0
   -8.5347   -4.4455  -27.1511 C   0  0  0  0  0  0  0  0  0  0  0  0
   -8.5811   -5.7948  -26.4976 C   0  0  0  0  0  0  0  0  0  0  0  0
   -8.1999   -5.9426  -25.0543 C   0  0  0  0  0  0  0  0  0  0  0  0
   -8.2463   -7.2920  -24.4008 Cl  0  0  0  0  0  0  0  0  0  0  0  0
   -7.7724   -4.7411  -24.2647 C   0  0  0  0  0  0  0  0  0  0  0  0
   -7.7261   -3.3918  -24.9183 C   0  0  0  0  0  0  0  0  0  0  0  0
   -6.1060   -0.9352  -20.6547 C   0  0  0  0  0  0  0  0  0  0  0  0
   -6.8805   -1.0249  -19.3733 C   0  0  0  0  0  0  0  0  0  0  0  0
   -6.4113   -0.2788  -18.1595 N   0  0  0  0  0  0  0  0  0  0  0  0
   -5.1677    0.5571  -18.2272 C   0  0  0  0  0  0  0  0  0  0  0  0
   -4.3932    0.6468  -19.5087 C   0  0  0  0  0  0  0  0  0  0  0  0
   -3.1494    1.4827  -19.5764 C   0  0  0  0  0  0  0  0  0  0  0  0
   -2.3750    1.5724  -20.8579 C   0  0  0  0  0  0  0  0  0  0  0  0
   -2.8442    0.8263  -22.0716 C   0  0  0  0  0  0  0  0  0  0  0  0
   -4.0879   -0.0096  -22.0038 C   0  0  0  0  0  0  0  0  0  0  0  0
   -4.8623   -0.0993  -20.7225 C   0  0  0  0  0  0  0  0  0  0  0  0
   -7.5870    0.6563  -26.8789 C   0  0  0  0  0  0  0  0  0  0  0  0
   -8.4592    1.7659  -26.3712 C   0  0  0  0  0  0  0  0  0  0  0  0
   -7.8675    2.8630  -25.5369 N   0  0  0  0  0  0  0  0  0  0  0  0
   -6.3833    3.0800  -25.5263 C   0  0  0  0  0  0  0  0  0  0  0  0
   -5.7916    4.1771  -24.6920 C   0  0  0  0  0  0  0  0  0  0  0  0
   -6.6840    5.0573  -23.8682 O   0  0  0  0  0  0  0  0  0  0  0  0
   -8.1682    4.8405  -23.8787 C   0  0  0  0  0  0  0  0  0  0  0  0
   -9.6223    5.0271  -23.5611 C   0  0  0  0  0  0  0  0  0  0  0  0
   -8.0815    6.0024  -22.9341 C   0  0  0  0  0  0  0  0  0  0  0  0
   -8.7600    3.7433  -24.7130 C   0  0  0  0  0  0  0  0  0  0  0  0
   -7.2606    2.2645  -26.0971 H   0  0  0  0  0  0  0  0  0  0  0  0
  2  1  1  0  0  0
  2  3  1  0  0  0
  3  4  1  0  0  0
  4 19  1  0  0  0
 19 20  2  0  0  0
 20 21  1  0  0  0
 21 22  2  0  0  0
 22 23  1  0  0  0
 23 24  2  0  0  0
 24 25  1  0  0  0
 25 26  2  0  0  0
 26 27  1  0  0  0
 27 28  2  0  0  0
  4  5  1  0  0  0
  5  6  2  0  0  0
  5  7  1  0  0  0
  7  8  1  0  0  0
  8  9  1  0  0  0
  9 29  1  0  0  0
 29 30  1  0  0  0
 31 30  1  0  0  0
 31 32  1  0  0  0
 32 33  1  0  0  0
 33 34  1  0  0  0
 34 35  1  0  0  0
 35 36  1  0  0  0
 35 37  1  0  0  0
 35 38  1  0  0  0
  9 10  1  0  0  0
 10 11  2  0  0  0
 10 12  1  0  0  0
 12 13  2  0  0  0
 13 14  1  0  0  0
 14 15  2  0  0  0
 15 16  1  0  0  0
 15 17  1  0  0  0
 17 18  2  0  0  0
  7  2  1  0  0  0
 38 31  1  0  0  0
 18 12  1  0  0  0
 28 19  1  0  0  0
 18  7  1  0  0  0
 28 23  1  0  0  0
 31 39  1  0  0  0
M  CHG 1  31   1
M  END
> <minimizedAffinity>
-8.07160

> <CNNscore>
0.1387669593

> <CNNaffinity>
6.1328544617

> <CNN_VS>
0.8510375619

> <CNNaffinity_variance>
0.1554070264

$$$$



 39 44  0  0  0  0  0  0  0  0999 V2000
   -5.7550   -5.4595  -23.1622 C   0  0  0  0  0  0  0  0  0  0  0  0
   -6.4198   -4.2126  -22.6586 C   0  0  0  0  0  0  0  0  0  0  0  0
   -5.5909   -3.5131  -21.6225 C   0  0  0  0  0  0  0  0  0  0  0  0
   -6.3352   -2.2869  -21.1839 N   0  0  0  0  0  0  0  0  0  0  0  0
   -7.6241   -2.2286  -21.9490 C   0  0  0  0  0  0  0  0  0  0  0  0
   -8.6760   -1.1665  -21.8245 O   0  0  0  0  0  0  0  0  0  0  0  0
   -7.6764   -3.4188  -22.8604 C   0  0  0  0  0  0  0  0  0  0  0  0
   -8.8777   -2.5254  -22.9541 C   0  0  0  0  0  0  0  0  0  0  0  0
   -9.9910   -2.8625  -23.9011 N   0  0  0  0  0  0  0  0  0  0  0  0
   -9.9032   -4.0929  -24.7544 C   0  0  0  0  0  0  0  0  0  0  0  0
  -11.0166   -4.4300  -25.7013 O   0  0  0  0  0  0  0  0  0  0  0  0
   -8.7019   -4.9864  -24.6607 C   0  0  0  0  0  0  0  0  0  0  0  0
   -8.6140   -6.2169  -25.5140 C   0  0  0  0  0  0  0  0  0  0  0  0
   -7.4128   -7.1103  -25.4203 C   0  0  0  0  0  0  0  0  0  0  0  0
   -6.2994   -6.7732  -24.4734 C   0  0  0  0  0  0  0  0  0  0  0  0
   -5.0981   -7.6666  -24.3797 Cl  0  0  0  0  0  0  0  0  0  0  0  0
   -6.3872   -5.5427  -23.6201 C   0  0  0  0  0  0  0  0  0  0  0  0
   -7.5885   -4.6493  -23.7138 C   0  0  0  0  0  0  0  0  0  0  0  0
   -5.8720   -1.2934  -20.1600 C   0  0  0  0  0  0  0  0  0  0  0  0
   -6.4667   -1.3029  -18.7831 C   0  0  0  0  0  0  0  0  0  0  0  0
   -6.0035   -0.3094  -17.7592 N   0  0  0  0  0  0  0  0  0  0  0  0
   -4.9455    0.6936  -18.1123 C   0  0  0  0  0  0  0  0  0  0  0  0
   -4.3507    0.7030  -19.4893 C   0  0  0  0  0  0  0  0  0  0  0  0
   -3.2927    1.7061  -19.8425 C   0  0  0  0  0  0  0  0  0  0  0  0
   -2.6980    1.7154  -21.2195 C   0  0  0  0  0  0  0  0  0  0  0  0
   -3.1613    0.7220  -22.2433 C   0  0  0  0  0  0  0  0  0  0  0  0
   -4.2192   -0.2810  -21.8902 C   0  0  0  0  0  0  0  0  0  0  0  0
   -4.8140   -0.2905  -20.5132 C   0  0  0  0  0  0  0  0  0  0  0  0
  -11.1923   -1.9690  -23.9947 C   0  0  0  0  0  0  0  0  0  0  0  0
  -11.4063   -0.8905  -22.9744 C   0  0  0  0  0  0  0  0  0  0  0  0
  -11.1654    0.5446  -23.3383 N   0  0  0  0  0  0  0  0  0  0  0  0
   -9.9590    0.9212  -24.1463 C   0  0  0  0  0  0  0  0  0  0  0  0
   -9.7182    2.3562  -24.5103 C   0  0  0  0  0  0  0  0  0  0  0  0
  -10.6837    3.4148  -24.0662 O   0  0  0  0  0  0  0  0  0  0  0  0
  -11.8901    3.0383  -23.2582 C   0  0  0  0  0  0  0  0  0  0  0  0
  -13.1668    3.1769  -22.4832 C   0  0  0  0  0  0  0  0  0  0  0  0
  -12.0927    4.5215  -23.3530 C   0  0  0  0  0  0  0  0  0  0  0  0
  -12.1310    1.6031  -22.8943 C   0  0  0  0  0  0  0  0  0  0  0  0
  -10.5089   -0.1752  -23.6403 H   0  0  0  0  0  0  0  0  0  0  0  0
  2  1  1  0  0  0
  2  3  1  0  0  0
  3  4  1  0  0  0
  4 19  1  0  0  0
 19 20  2  0  0  0
 20 21  1  0  0  0
 21 22  2  0  0  0
 22 23  1  0  0  0
 23 24  2  0  0  0
 24 25  1  0  0  0
 25 26  2  0  0  0
 26 27  1  0  0  0
 27 28  2  0  0  0
  4  5  1  0  0  0
  5  6  2  0  0  0
  5  7  1  0  0  0
  7  8  1  0  0  0
  8  9  1  0  0  0
  9 29  1  0  0  0
 29 30  1  0  0  0
 31 30  1  0  0  0
 31 32  1  0  0  0
 32 33  1  0  0  0
 33 34  1  0  0  0
 34 35  1  0  0  0
 35 36  1  0  0  0
 35 37  1  0  0  0
 35 38  1  0  0  0
  9 10  1  0  0  0
 10 11  2  0  0  0
 10 12  1  0  0  0
 12 13  2  0  0  0
 13 14  1  0  0  0
 14 15  2  0  0  0
 15 16  1  0  0  0
 15 17  1  0  0  0
 17 18  2  0  0  0
  7  2  1  0  0  0
 38 31  1  0  0  0
 18 12  1  0  0  0
 28 19  1  0  0  0
 18  7  1  0  0  0
 28 23  1  0  0  0
 31 39  1  0  0  0
M  CHG 1  31   1
M  END
> <minimizedAffinity>
-9.33313

> <CNNscore>
0.1326819509

> <CNNaffinity>
6.1564970016

> <CNN_VS>
0.8168560266

> <CNNaffinity_variance>
0.4335629344

$$$$



 39 44  0  0  0  0  0  0  0  0999 V2000
  -11.4502   -1.4951  -23.3015 C   0  0  0  0  0  0  0  0  0  0  0  0
   -9.9511   -1.5474  -23.3210 C   0  0  0  0  0  0  0  0  0  0  0  0
   -9.4366   -2.9527  -23.2202 C   0  0  0  0  0  0  0  0  0  0  0  0
   -7.9377   -2.9006  -23.2478 N   0  0  0  0  0  0  0  0  0  0  0  0
   -7.5260   -1.4631  -23.3657 C   0  0  0  0  0  0  0  0  0  0  0  0
   -6.1172   -0.9517  -23.4275 O   0  0  0  0  0  0  0  0  0  0  0  0
   -8.7704   -0.6267  -23.4110 C   0  0  0  0  0  0  0  0  0  0  0  0
   -7.4994    0.1657  -23.4923 C   0  0  0  0  0  0  0  0  0  0  0  0
   -7.5535    1.6603  -23.6073 N   0  0  0  0  0  0  0  0  0  0  0  0
   -8.8785    2.3625  -23.6409 C   0  0  0  0  0  0  0  0  0  0  0  0
   -8.9326    3.8571  -23.7559 O   0  0  0  0  0  0  0  0  0  0  0  0
  -10.1496    1.5701  -23.5595 C   0  0  0  0  0  0  0  0  0  0  0  0
  -11.4746    2.2723  -23.5931 C   0  0  0  0  0  0  0  0  0  0  0  0
  -12.7456    1.4799  -23.5117 C   0  0  0  0  0  0  0  0  0  0  0  0
  -12.6915   -0.0147  -23.3968 C   0  0  0  0  0  0  0  0  0  0  0  0
  -13.9626   -0.8072  -23.3154 Cl  0  0  0  0  0  0  0  0  0  0  0  0
  -11.3665   -0.7169  -23.3632 C   0  0  0  0  0  0  0  0  0  0  0  0
  -10.0955    0.0755  -23.4445 C   0  0  0  0  0  0  0  0  0  0  0  0
   -7.0130   -4.0792  -23.1710 C   0  0  0  0  0  0  0  0  0  0  0  0
   -6.2620   -4.3619  -21.9038 C   0  0  0  0  0  0  0  0  0  0  0  0
   -5.3373   -5.5404  -21.8270 N   0  0  0  0  0  0  0  0  0  0  0  0
   -5.1635   -6.4362  -23.0175 C   0  0  0  0  0  0  0  0  0  0  0  0
   -5.9145   -6.1534  -24.2848 C   0  0  0  0  0  0  0  0  0  0  0  0
   -5.7407   -7.0493  -25.4754 C   0  0  0  0  0  0  0  0  0  0  0  0
   -6.4917   -6.7664  -26.7427 C   0  0  0  0  0  0  0  0  0  0  0  0
   -7.4164   -5.5879  -26.8194 C   0  0  0  0  0  0  0  0  0  0  0  0
   -7.5902   -4.6922  -25.6289 C   0  0  0  0  0  0  0  0  0  0  0  0
   -6.8393   -4.9749  -24.3616 C   0  0  0  0  0  0  0  0  0  0  0  0
   -6.2824    2.4528  -23.6887 C   0  0  0  0  0  0  0  0  0  0  0  0
   -5.7689    3.1733  -22.4775 C   0  0  0  0  0  0  0  0  0  0  0  0
   -4.7466    2.5214  -21.5944 N   0  0  0  0  0  0  0  0  0  0  0  0
   -5.1126    1.3075  -20.7927 C   0  0  0  0  0  0  0  0  0  0  0  0
   -4.0903    0.6556  -19.9097 C   0  0  0  0  0  0  0  0  0  0  0  0
   -2.7020    1.2176  -19.8281 O   0  0  0  0  0  0  0  0  0  0  0  0
   -2.3359    2.4314  -20.6297 C   0  0  0  0  0  0  0  0  0  0  0  0
   -1.5159    3.5543  -21.1925 C   0  0  0  0  0  0  0  0  0  0  0  0
   -1.0288    2.1695  -19.9421 C   0  0  0  0  0  0  0  0  0  0  0  0
   -3.3582    3.0833  -21.5129 C   0  0  0  0  0  0  0  0  0  0  0  0
   -5.6907    2.1393  -21.6498 H   0  0  0  0  0  0  0  0  0  0  0  0
  2  1  1  0  0  0
  2  3  1  0  0  0
  3  4  1  0  0  0
  4 19  1  0  0  0
 19 20  2  0  0  0
 20 21  1  0  0  0
 21 22  2  0  0  0
 22 23  1  0  0  0
 23 24  2  0  0  0
 24 25  1  0  0  0
 25 26  2  0  0  0
 26 27  1  0  0  0
 27 28  2  0  0  0
  4  5  1  0  0  0
  5  6  2  0  0  0
  5  7  1  0  0  0
  7  8  1  0  0  0
  8  9  1  0  0  0
  9 29  1  0  0  0
 29 30  1  0  0  0
 31 30  1  0  0  0
 31 32  1  0  0  0
 32 33  1  0  0  0
 33 34  1  0  0  0
 34 35  1  0  0  0
 35 36  1  0  0  0
 35 37  1  0  0  0
 35 38  1  0  0  0
  9 10  1  0  0  0
 10 11  2  0  0  0
 10 12  1  0  0  0
 12 13  2  0  0  0
 13 14  1  0  0  0
 14 15  2  0  0  0
 15 16  1  0  0  0
 15 17  1  0  0  0
 17 18  2  0  0  0
  7  2  1  0  0  0
 38 31  1  0  0  0
 18 12  1  0  0  0
 28 19  1  0  0  0
 18  7  1  0  0  0
 28 23  1  0  0  0
 31 39  1  0  0  0
M  CHG 1  31   1
M  END
> <minimizedAffinity>
-8.77659

> <CNNscore>
0.1212452054

> <CNNaffinity>
6.1255407333

> <CNN_VS>
0.7426924706

> <CNNaffinity_variance>
0.3515444398

$$$$
