


 39 44  0  0  0  0  0  0  0  0999 V2000
   10.6532   -1.2574   22.6200 C   0  0  0  0  0  0  0  0  0  0  0  0
    9.1572   -1.1798   22.5424 C   0  0  0  0  0  0  0  0  0  0  0  0
    8.6920   -0.5835   21.2470 C   0  0  0  0  0  0  0  0  0  0  0  0
    7.1925   -0.5486   21.2648 N   0  0  0  0  0  0  0  0  0  0  0  0
    6.7310   -1.1234   22.5712 C   0  0  0  0  0  0  0  0  0  0  0  0
    5.3055   -1.2804   23.0109 O   0  0  0  0  0  0  0  0  0  0  0  0
    7.9453   -1.5134   23.3608 C   0  0  0  0  0  0  0  0  0  0  0  0
    6.6477   -1.7910   24.0602 C   0  0  0  0  0  0  0  0  0  0  0  0
    6.6497   -2.4067   25.4280 N   0  0  0  0  0  0  0  0  0  0  0  0
    7.9492   -2.7447   26.0965 C   0  0  0  0  0  0  0  0  0  0  0  0
    7.9512   -3.3603   27.4644 O   0  0  0  0  0  0  0  0  0  0  0  0
    9.2469   -2.4670   25.3971 C   0  0  0  0  0  0  0  0  0  0  0  0
   10.5464   -2.8050   26.0656 C   0  0  0  0  0  0  0  0  0  0  0  0
   11.8440   -2.5274   25.3662 C   0  0  0  0  0  0  0  0  0  0  0  0
   11.8420   -1.9118   23.9984 C   0  0  0  0  0  0  0  0  0  0  0  0
   13.1397   -1.6341   23.2990 Cl  0  0  0  0  0  0  0  0  0  0  0  0
   10.5425   -1.5738   23.3299 C   0  0  0  0  0  0  0  0  0  0  0  0
    9.2449   -1.8514   24.0293 C   0  0  0  0  0  0  0  0  0  0  0  0
    6.3095   -0.0301   20.1687 C   0  0  0  0  0  0  0  0  0  0  0  0
    6.3543   -0.6602   18.8083 C   0  0  0  0  0  0  0  0  0  0  0  0
    5.4713   -0.1416   17.7122 N   0  0  0  0  0  0  0  0  0  0  0  0
    4.5435    1.0070   17.9766 C   0  0  0  0  0  0  0  0  0  0  0  0
    4.4988    1.6370   19.3371 C   0  0  0  0  0  0  0  0  0  0  0  0
    3.5710    2.7857   19.6015 C   0  0  0  0  0  0  0  0  0  0  0  0
    3.5263    3.4157   20.9621 C   0  0  0  0  0  0  0  0  0  0  0  0
    4.4092    2.8972   22.0581 C   0  0  0  0  0  0  0  0  0  0  0  0
    5.3370    1.7486   21.7937 C   0  0  0  0  0  0  0  0  0  0  0  0
    5.3818    1.1185   20.4332 C   0  0  0  0  0  0  0  0  0  0  0  0
    5.3520   -2.6843   26.1274 C   0  0  0  0  0  0  0  0  0  0  0  0
    4.4227   -3.7344   25.5949 C   0  0  0  0  0  0  0  0  0  0  0  0
    4.9218   -5.1297   25.3628 N   0  0  0  0  0  0  0  0  0  0  0  0
    4.3074   -6.2793   26.1052 C   0  0  0  0  0  0  0  0  0  0  0  0
    4.8065   -7.6746   25.8731 C   0  0  0  0  0  0  0  0  0  0  0  0
    5.9202   -7.9204   24.8987 O   0  0  0  0  0  0  0  0  0  0  0  0
    6.5346   -6.7709   24.1564 C   0  0  0  0  0  0  0  0  0  0  0  0
    7.4305   -6.0148   23.2206 C   0  0  0  0  0  0  0  0  0  0  0  0
    7.3450   -7.9036   23.5994 C   0  0  0  0  0  0  0  0  0  0  0  0
    6.0355   -5.3755   24.3885 C   0  0  0  0  0  0  0  0  0  0  0  0
    4.1646   -4.9625   26.0254 H   0  0  0  0  0  0  0  0  0  0  0  0
  2  1  1  0  0  0
  2  3  1  0  0  0
  3  4  1  0  0  0
  4 19  1  0  0  0
 19 20  2  0  0  0
 20 21  1  0  0  0
 21 22  2  0  0  0
 22 23  1  0  0  0
 23 24  2  0  0  0
 24 25  1  0  0  0
 25 26  2  0  0  0
 26 27  1  0  0  0
 27 28  2  0  0  0
  4  5  1  0  0  0
  5  6  2  0  0  0
  5  7  1  0  0  0
  7  8  1  0  0  0
  8  9  1  0  0  0
  9 29  1  0  0  0
 29 30  1  0  0  0
 31 30  1  0  0  0
 31 32  1  0  0  0
 32 33  1  0  0  0
 33 34  1  0  0  0
 34 35  1  0  0  0
 35 36  1  0  0  0
 35 37  1  0  0  0
 35 38  1  0  0  0
  9 10  1  0  0  0
 10 11  2  0  0  0
 10 12  1  0  0  0
 12 13  2  0  0  0
 13 14  1  0  0  0
 14 15  2  0  0  0
 15 16  1  0  0  0
 15 17  1  0  0  0
 17 18  2  0  0  0
  7  2  1  0  0  0
 38 31  1  0  0  0
 18 12  1  0  0  0
 28 19  1  0  0  0
 18  7  1  0  0  0
 28 23  1  0  0  0
 31 39  1  0  0  0
M  CHG 1  31   1
M  END
> <minimizedAffinity>
-10.03996

> <CNNscore>
0.6825081110

> <CNNaffinity>
7.0916795731

> <CNN_VS>
4.8401288986

> <CNNaffinity_variance>
0.1075348407

$$$$



 39 44  0  0  0  0  0  0  0  0999 V2000
   10.6886   -1.1646   22.5261 C   0  0  0  0  0  0  0  0  0  0  0  0
    9.1903   -1.1036   22.4879 C   0  0  0  0  0  0  0  0  0  0  0  0
    8.6850   -0.5000   21.2110 C   0  0  0  0  0  0  0  0  0  0  0  0
    7.1861   -0.4828   21.2678 N   0  0  0  0  0  0  0  0  0  0  0  0
    6.7652   -1.0758   22.5798 C   0  0  0  0  0  0  0  0  0  0  0  0
    5.3534   -1.2538   23.0543 O   0  0  0  0  0  0  0  0  0  0  0  0
    8.0038   -1.4594   23.3338 C   0  0  0  0  0  0  0  0  0  0  0  0
    6.7280   -1.7591   24.0635 C   0  0  0  0  0  0  0  0  0  0  0  0
    6.7723   -2.3882   25.4245 N   0  0  0  0  0  0  0  0  0  0  0  0
    8.0925   -2.7176   26.0558 C   0  0  0  0  0  0  0  0  0  0  0  0
    8.1368   -3.3467   27.4168 O   0  0  0  0  0  0  0  0  0  0  0  0
    9.3684   -2.4180   25.3261 C   0  0  0  0  0  0  0  0  0  0  0  0
   10.6885   -2.7474   25.9574 C   0  0  0  0  0  0  0  0  0  0  0  0
   11.9643   -2.4478   25.2278 C   0  0  0  0  0  0  0  0  0  0  0  0
   11.9200   -1.8187   23.8668 C   0  0  0  0  0  0  0  0  0  0  0  0
   13.1959   -1.5191   23.1371 Cl  0  0  0  0  0  0  0  0  0  0  0  0
   10.5999   -1.4893   23.2354 C   0  0  0  0  0  0  0  0  0  0  0  0
    9.3240   -1.7889   23.9651 C   0  0  0  0  0  0  0  0  0  0  0  0
    6.2693    0.0363   20.2001 C   0  0  0  0  0  0  0  0  0  0  0  0
    6.2239   -0.6345   18.8594 C   0  0  0  0  0  0  0  0  0  0  0  0
    5.3070   -0.1155   17.7917 N   0  0  0  0  0  0  0  0  0  0  0  0
    4.4355    1.0744   18.0649 C   0  0  0  0  0  0  0  0  0  0  0  0
    4.4809    1.7452   19.4058 C   0  0  0  0  0  0  0  0  0  0  0  0
    3.6093    2.9352   19.6790 C   0  0  0  0  0  0  0  0  0  0  0  0
    3.6548    3.6059   21.0199 C   0  0  0  0  0  0  0  0  0  0  0  0
    4.5717    3.0868   22.0875 C   0  0  0  0  0  0  0  0  0  0  0  0
    5.4432    1.8970   21.8143 C   0  0  0  0  0  0  0  0  0  0  0  0
    5.3978    1.2262   20.4735 C   0  0  0  0  0  0  0  0  0  0  0  0
    5.4964   -2.6878   26.1541 C   0  0  0  0  0  0  0  0  0  0  0  0
    5.0216   -4.1047   26.2838 C   0  0  0  0  0  0  0  0  0  0  0  0
    4.7057   -4.9052   25.0553 N   0  0  0  0  0  0  0  0  0  0  0  0
    3.3876   -5.6119   24.9389 C   0  0  0  0  0  0  0  0  0  0  0  0
    3.0717   -6.4124   23.7104 C   0  0  0  0  0  0  0  0  0  0  0  0
    4.0738   -6.5063   22.5982 O   0  0  0  0  0  0  0  0  0  0  0  0
    5.3918   -5.7997   22.7145 C   0  0  0  0  0  0  0  0  0  0  0  0
    6.7658   -5.3122   22.3616 C   0  0  0  0  0  0  0  0  0  0  0  0
    5.5531   -6.4309   21.3634 C   0  0  0  0  0  0  0  0  0  0  0  0
    5.7077   -4.9991   23.9431 C   0  0  0  0  0  0  0  0  0  0  0  0
    4.0243   -4.8414   25.8116 H   0  0  0  0  0  0  0  0  0  0  0  0
  2  1  1  0  0  0
  2  3  1  0  0  0
  3  4  1  0  0  0
  4 19  1  0  0  0
 19 20  2  0  0  0
 20 21  1  0  0  0
 21 22  2  0  0  0
 22 23  1  0  0  0
 23 24  2  0  0  0
 24 25  1  0  0  0
 25 26  2  0  0  0
 26 27  1  0  0  0
 27 28  2  0  0  0
  4  5  1  0  0  0
  5  6  2  0  0  0
  5  7  1  0  0  0
  7  8  1  0  0  0
  8  9  1  0  0  0
  9 29  1  0  0  0
 29 30  1  0  0  0
 31 30  1  0  0  0
 31 32  1  0  0  0
 32 33  1  0  0  0
 33 34  1  0  0  0
 34 35  1  0  0  0
 35 36  1  0  0  0
 35 37  1  0  0  0
 35 38  1  0  0  0
  9 10  1  0  0  0
 10 11  2  0  0  0
 10 12  1  0  0  0
 12 13  2  0  0  0
 13 14  1  0  0  0
 14 15  2  0  0  0
 15 16  1  0  0  0
 15 17  1  0  0  0
 17 18  2  0  0  0
  7  2  1  0  0  0
 38 31  1  0  0  0
 18 12  1  0  0  0
 28 19  1  0  0  0
 18  7  1  0  0  0
 28 23  1  0  0  0
 31 39  1  0  0  0
M  CHG 1  31   1
M  END
> <minimizedAffinity>
-9.45119

> <CNNscore>
0.5374338031

> <CNNaffinity>
6.9915299416

> <CNN_VS>
3.7574844360

> <CNNaffinity_variance>
0.1658580452

$$$$



 39 44  0  0  0  0  0  0  0  0999 V2000
    7.4731   -3.3919   23.2444 C   0  0  0  0  0  0  0  0  0  0  0  0
    7.6214   -2.0573   22.5757 C   0  0  0  0  0  0  0  0  0  0  0  0
    6.5383   -1.8104   21.5678 C   0  0  0  0  0  0  0  0  0  0  0  0
    6.7718   -0.4601   20.9577 N   0  0  0  0  0  0  0  0  0  0  0  0
    7.9992    0.1275   21.5887 C   0  0  0  0  0  0  0  0  0  0  0  0
    8.5967    1.4671   21.2748 O   0  0  0  0  0  0  0  0  0  0  0  0
    8.5243   -0.8596   22.5887 C   0  0  0  0  0  0  0  0  0  0  0  0
    9.3339    0.3994   22.4913 C   0  0  0  0  0  0  0  0  0  0  0  0
   10.5486    0.5786   23.3529 N   0  0  0  0  0  0  0  0  0  0  0  0
   10.9537   -0.5012   24.3120 C   0  0  0  0  0  0  0  0  0  0  0  0
   12.1684   -0.3221   25.1736 O   0  0  0  0  0  0  0  0  0  0  0  0
   10.1441   -1.7603   24.4095 C   0  0  0  0  0  0  0  0  0  0  0  0
   10.5492   -2.8401   25.3686 C   0  0  0  0  0  0  0  0  0  0  0  0
    9.7396   -4.0990   25.4660 C   0  0  0  0  0  0  0  0  0  0  0  0
    8.5249   -4.2782   24.6044 C   0  0  0  0  0  0  0  0  0  0  0  0
    7.7153   -5.5372   24.7019 Cl  0  0  0  0  0  0  0  0  0  0  0  0
    8.1198   -3.1984   23.6453 C   0  0  0  0  0  0  0  0  0  0  0  0
    8.9294   -1.9394   23.5478 C   0  0  0  0  0  0  0  0  0  0  0  0
    5.9264    0.1886   19.9021 C   0  0  0  0  0  0  0  0  0  0  0  0
    6.3406    0.1194   18.4622 C   0  0  0  0  0  0  0  0  0  0  0  0
    5.4951    0.7681   17.4065 N   0  0  0  0  0  0  0  0  0  0  0  0
    4.2356    1.4862   17.7910 C   0  0  0  0  0  0  0  0  0  0  0  0
    3.8214    1.5555   19.2310 C   0  0  0  0  0  0  0  0  0  0  0  0
    2.5617    2.2736   19.6154 C   0  0  0  0  0  0  0  0  0  0  0  0
    2.1476    2.3428   21.0554 C   0  0  0  0  0  0  0  0  0  0  0  0
    2.9930    1.6940   22.1110 C   0  0  0  0  0  0  0  0  0  0  0  0
    4.2526    0.9760   21.7266 C   0  0  0  0  0  0  0  0  0  0  0  0
    4.6668    0.9067   20.2866 C   0  0  0  0  0  0  0  0  0  0  0  0
   11.3582    1.8376   23.2554 C   0  0  0  0  0  0  0  0  0  0  0  0
   10.9566    2.9148   22.2919 C   0  0  0  0  0  0  0  0  0  0  0  0
   10.1322    4.0751   22.7651 N   0  0  0  0  0  0  0  0  0  0  0  0
    8.7371    3.8484   23.2677 C   0  0  0  0  0  0  0  0  0  0  0  0
    7.9127    5.0087   23.7410 C   0  0  0  0  0  0  0  0  0  0  0  0
    8.4833    6.3957   23.7117 O   0  0  0  0  0  0  0  0  0  0  0  0
    9.8782    6.6223   23.2091 C   0  0  0  0  0  0  0  0  0  0  0  0
   11.1390    7.3383   22.8244 C   0  0  0  0  0  0  0  0  0  0  0  0
    9.4917    8.0313   23.5487 C   0  0  0  0  0  0  0  0  0  0  0  0
   10.7028    5.4620   22.7358 C   0  0  0  0  0  0  0  0  0  0  0  0
    9.7442    3.1319   22.7851 H   0  0  0  0  0  0  0  0  0  0  0  0
  2  1  1  0  0  0
  2  3  1  0  0  0
  3  4  1  0  0  0
  4 19  1  0  0  0
 19 20  2  0  0  0
 20 21  1  0  0  0
 21 22  2  0  0  0
 22 23  1  0  0  0
 23 24  2  0  0  0
 24 25  1  0  0  0
 25 26  2  0  0  0
 26 27  1  0  0  0
 27 28  2  0  0  0
  4  5  1  0  0  0
  5  6  2  0  0  0
  5  7  1  0  0  0
  7  8  1  0  0  0
  8  9  1  0  0  0
  9 29  1  0  0  0
 29 30  1  0  0  0
 31 30  1  0  0  0
 31 32  1  0  0  0
 32 33  1  0  0  0
 33 34  1  0  0  0
 34 35  1  0  0  0
 35 36  1  0  0  0
 35 37  1  0  0  0
 35 38  1  0  0  0
  9 10  1  0  0  0
 10 11  2  0  0  0
 10 12  1  0  0  0
 12 13  2  0  0  0
 13 14  1  0  0  0
 14 15  2  0  0  0
 15 16  1  0  0  0
 15 17  1  0  0  0
 17 18  2  0  0  0
  7  2  1  0  0  0
 38 31  1  0  0  0
 18 12  1  0  0  0
 28 19  1  0  0  0
 18  7  1  0  0  0
 28 23  1  0  0  0
 31 39  1  0  0  0
M  CHG 1  31   1
M  END
> <minimizedAffinity>
-9.90519

> <CNNscore>
0.5265454650

> <CNNaffinity>
6.9184751511

> <CNN_VS>
3.6428916454

> <CNNaffinity_variance>
0.1796844304

$$$$



 39 44  0  0  0  0  0  0  0  0999 V2000
   10.9835   -2.4921   24.8222 C   0  0  0  0  0  0  0  0  0  0  0  0
    9.5792   -2.7428   24.3581 C   0  0  0  0  0  0  0  0  0  0  0  0
    9.0347   -4.0360   24.8883 C   0  0  0  0  0  0  0  0  0  0  0  0
    7.6353   -4.1959   24.3724 N   0  0  0  0  0  0  0  0  0  0  0  0
    7.3151   -3.0015   23.5233 C   0  0  0  0  0  0  0  0  0  0  0  0
    6.0206   -2.7495   22.8085 O   0  0  0  0  0  0  0  0  0  0  0  0
    8.5165   -2.1035   23.5144 C   0  0  0  0  0  0  0  0  0  0  0  0
    7.3636   -1.5881   22.7050 C   0  0  0  0  0  0  0  0  0  0  0  0
    7.4815   -0.2803   21.9798 N   0  0  0  0  0  0  0  0  0  0  0  0
    8.7524    0.5120   22.0641 C   0  0  0  0  0  0  0  0  0  0  0  0
    8.8703    1.8198   21.3389 O   0  0  0  0  0  0  0  0  0  0  0  0
    9.9053   -0.0034   22.8735 C   0  0  0  0  0  0  0  0  0  0  0  0
   11.1762    0.7890   22.9577 C   0  0  0  0  0  0  0  0  0  0  0  0
   12.3291    0.2736   23.7671 C   0  0  0  0  0  0  0  0  0  0  0  0
   12.2111   -1.0342   24.4923 C   0  0  0  0  0  0  0  0  0  0  0  0
   13.3641   -1.5496   25.3017 Cl  0  0  0  0  0  0  0  0  0  0  0  0
   10.9403   -1.8265   24.4081 C   0  0  0  0  0  0  0  0  0  0  0  0
    9.7874   -1.3111   23.5987 C   0  0  0  0  0  0  0  0  0  0  0  0
    6.7173   -5.3478   24.6558 C   0  0  0  0  0  0  0  0  0  0  0  0
    7.0306   -6.7087   24.1084 C   0  0  0  0  0  0  0  0  0  0  0  0
    6.1126   -7.8606   24.3918 N   0  0  0  0  0  0  0  0  0  0  0  0
    4.8814   -7.6516   25.2226 C   0  0  0  0  0  0  0  0  0  0  0  0
    4.5681   -6.2907   25.7700 C   0  0  0  0  0  0  0  0  0  0  0  0
    3.3368   -6.0817   26.6009 C   0  0  0  0  0  0  0  0  0  0  0  0
    3.0236   -4.7207   27.1483 C   0  0  0  0  0  0  0  0  0  0  0  0
    3.9416   -3.5688   26.8649 C   0  0  0  0  0  0  0  0  0  0  0  0
    5.1728   -3.7779   26.0341 C   0  0  0  0  0  0  0  0  0  0  0  0
    5.4861   -5.1387   25.4867 C   0  0  0  0  0  0  0  0  0  0  0  0
    6.3286    0.2351   21.1704 C   0  0  0  0  0  0  0  0  0  0  0  0
    5.3466    1.1875   21.7857 C   0  0  0  0  0  0  0  0  0  0  0  0
    5.8375    2.3895   22.5368 N   0  0  0  0  0  0  0  0  0  0  0  0
    6.3284    2.2439   23.9468 C   0  0  0  0  0  0  0  0  0  0  0  0
    6.8193    3.4459   24.6979 C   0  0  0  0  0  0  0  0  0  0  0  0
    6.8194    4.7935   24.0391 O   0  0  0  0  0  0  0  0  0  0  0  0
    6.3286    4.9391   22.6292 C   0  0  0  0  0  0  0  0  0  0  0  0
    5.9644    5.5794   21.3225 C   0  0  0  0  0  0  0  0  0  0  0  0
    6.6930    6.3635   22.9264 C   0  0  0  0  0  0  0  0  0  0  0  0
    5.8377    3.7371   21.8780 C   0  0  0  0  0  0  0  0  0  0  0  0
    5.8375    1.4732   22.9848 H   0  0  0  0  0  0  0  0  0  0  0  0
  2  1  1  0  0  0
  2  3  1  0  0  0
  3  4  1  0  0  0
  4 19  1  0  0  0
 19 20  2  0  0  0
 20 21  1  0  0  0
 21 22  2  0  0  0
 22 23  1  0  0  0
 23 24  2  0  0  0
 24 25  1  0  0  0
 25 26  2  0  0  0
 26 27  1  0  0  0
 27 28  2  0  0  0
  4  5  1  0  0  0
  5  6  2  0  0  0
  5  7  1  0  0  0
  7  8  1  0  0  0
  8  9  1  0  0  0
  9 29  1  0  0  0
 29 30  1  0  0  0
 31 30  1  0  0  0
 31 32  1  0  0  0
 32 33  1  0  0  0
 33 34  1  0  0  0
 34 35  1  0  0  0
 35 36  1  0  0  0
 35 37  1  0  0  0
 35 38  1  0  0  0
  9 10  1  0  0  0
 10 11  2  0  0  0
 10 12  1  0  0  0
 12 13  2  0  0  0
 13 14  1  0  0  0
 14 15  2  0  0  0
 15 16  1  0  0  0
 15 17  1  0  0  0
 17 18  2  0  0  0
  7  2  1  0  0  0
 38 31  1  0  0  0
 18 12  1  0  0  0
 28 19  1  0  0  0
 18  7  1  0  0  0
 28 23  1  0  0  0
 31 39  1  0  0  0
M  CHG 1  31   1
M  END
> <minimizedAffinity>
-8.76234

> <CNNscore>
0.4783720672

> <CNNaffinity>
6.8482046127

> <CNN_VS>
3.2759897709

> <CNNaffinity_variance>
0.0736868307

$$$$



 39 44  0  0  0  0  0  0  0  0999 V2000
   10.8491   -3.0352   26.1781 C   0  0  0  0  0  0  0  0  0  0  0  0
    9.4173   -2.7209   25.8597 C   0  0  0  0  0  0  0  0  0  0  0  0
    8.4702   -3.6638   26.5409 C   0  0  0  0  0  0  0  0  0  0  0  0
    7.0729   -3.2705   26.1631 N   0  0  0  0  0  0  0  0  0  0  0  0
    7.1564   -2.0846   25.2484 C   0  0  0  0  0  0  0  0  0  0  0  0
    5.9949   -1.3647   24.6298 O   0  0  0  0  0  0  0  0  0  0  0  0
    8.6053   -1.7449   25.0609 C   0  0  0  0  0  0  0  0  0  0  0  0
    7.6662   -0.8448   24.3142 C   0  0  0  0  0  0  0  0  0  0  0  0
    8.2080    0.2744   23.4752 N   0  0  0  0  0  0  0  0  0  0  0  0
    9.6890    0.4934   23.3829 C   0  0  0  0  0  0  0  0  0  0  0  0
   10.2309    1.6125   22.5439 O   0  0  0  0  0  0  0  0  0  0  0  0
   10.6283   -0.4068   24.1296 C   0  0  0  0  0  0  0  0  0  0  0  0
   12.1093   -0.1878   24.0373 C   0  0  0  0  0  0  0  0  0  0  0  0
   13.0485   -1.0880   24.7840 C   0  0  0  0  0  0  0  0  0  0  0  0
   12.5067   -2.2071   25.6230 C   0  0  0  0  0  0  0  0  0  0  0  0
   13.4459   -3.1073   26.3697 Cl  0  0  0  0  0  0  0  0  0  0  0  0
   11.0256   -2.4261   25.7153 C   0  0  0  0  0  0  0  0  0  0  0  0
   10.0865   -1.5260   24.9686 C   0  0  0  0  0  0  0  0  0  0  0  0
    5.8131   -3.9447   26.6198 C   0  0  0  0  0  0  0  0  0  0  0  0
    5.1050   -4.9054   25.7113 C   0  0  0  0  0  0  0  0  0  0  0  0
    3.8453   -5.5796   26.1680 N   0  0  0  0  0  0  0  0  0  0  0  0
    3.2938   -5.2931   27.5332 C   0  0  0  0  0  0  0  0  0  0  0  0
    4.0020   -4.3323   28.4417 C   0  0  0  0  0  0  0  0  0  0  0  0
    3.4504   -4.0457   29.8069 C   0  0  0  0  0  0  0  0  0  0  0  0
    4.1587   -3.0849   30.7153 C   0  0  0  0  0  0  0  0  0  0  0  0
    5.4184   -2.4108   30.2586 C   0  0  0  0  0  0  0  0  0  0  0  0
    5.9699   -2.6973   28.8934 C   0  0  0  0  0  0  0  0  0  0  0  0
    5.2617   -3.6581   27.9850 C   0  0  0  0  0  0  0  0  0  0  0  0
    7.2687    1.1746   22.7285 C   0  0  0  0  0  0  0  0  0  0  0  0
    6.3234    0.5984   21.7164 C   0  0  0  0  0  0  0  0  0  0  0  0
    4.8973    1.0615   21.6734 N   0  0  0  0  0  0  0  0  0  0  0  0
    4.0743    1.0729   22.9275 C   0  0  0  0  0  0  0  0  0  0  0  0
    2.6482    1.5360   22.8844 C   0  0  0  0  0  0  0  0  0  0  0  0
    2.0451    1.9877   21.5874 O   0  0  0  0  0  0  0  0  0  0  0  0
    2.8681    1.9763   20.3334 C   0  0  0  0  0  0  0  0  0  0  0  0
    3.2408    2.1462   18.8904 C   0  0  0  0  0  0  0  0  0  0  0  0
    1.5715    2.4984   19.7892 C   0  0  0  0  0  0  0  0  0  0  0  0
    4.2942    1.5132   20.3764 C   0  0  0  0  0  0  0  0  0  0  0  0
    5.3074    0.7543   22.5554 H   0  0  0  0  0  0  0  0  0  0  0  0
  2  1  1  0  0  0
  2  3  1  0  0  0
  3  4  1  0  0  0
  4 19  1  0  0  0
 19 20  2  0  0  0
 20 21  1  0  0  0
 21 22  2  0  0  0
 22 23  1  0  0  0
 23 24  2  0  0  0
 24 25  1  0  0  0
 25 26  2  0  0  0
 26 27  1  0  0  0
 27 28  2  0  0  0
  4  5  1  0  0  0
  5  6  2  0  0  0
  5  7  1  0  0  0
  7  8  1  0  0  0
  8  9  1  0  0  0
  9 29  1  0  0  0
 29 30  1  0  0  0
 31 30  1  0  0  0
 31 32  1  0  0  0
 32 33  1  0  0  0
 33 34  1  0  0  0
 34 35  1  0  0  0
 35 36  1  0  0  0
 35 37  1  0  0  0
 35 38  1  0  0  0
  9 10  1  0  0  0
 10 11  2  0  0  0
 10 12  1  0  0  0
 12 13  2  0  0  0
 13 14  1  0  0  0
 14 15  2  0  0  0
 15 16  1  0  0  0
 15 17  1  0  0  0
 17 18  2  0  0  0
  7  2  1  0  0  0
 38 31  1  0  0  0
 18 12  1  0  0  0
 28 19  1  0  0  0
 18  7  1  0  0  0
 28 23  1  0  0  0
 31 39  1  0  0  0
M  CHG 1  31   1
M  END
> <minimizedAffinity>
-8.56635

> <CNNscore>
0.3517319858

> <CNNaffinity>
6.5751395226

> <CNN_VS>
2.3126869202

> <CNNaffinity_variance>
0.1419204772

$$$$



 39 44  0  0  0  0  0  0  0  0999 V2000
    7.0713    0.1407   20.1398 C   0  0  0  0  0  0  0  0  0  0  0  0
    7.4705    0.1308   21.5857 C   0  0  0  0  0  0  0  0  0  0  0  0
    8.8755   -0.3584   21.7774 C   0  0  0  0  0  0  0  0  0  0  0  0
    9.1793   -0.3318   23.2460 N   0  0  0  0  0  0  0  0  0  0  0  0
    7.9620    0.1738   23.9621 C   0  0  0  0  0  0  0  0  0  0  0  0
    7.8250    0.3607   25.4440 O   0  0  0  0  0  0  0  0  0  0  0  0
    6.9059    0.4597   22.9359 C   0  0  0  0  0  0  0  0  0  0  0  0
    6.4797    0.7442   24.3457 C   0  0  0  0  0  0  0  0  0  0  0  0
    5.1011    1.2672   24.6213 N   0  0  0  0  0  0  0  0  0  0  0  0
    4.1488    1.5056   23.4873 C   0  0  0  0  0  0  0  0  0  0  0  0
    2.7702    2.0286   23.7630 O   0  0  0  0  0  0  0  0  0  0  0  0
    4.5750    1.2211   22.0775 C   0  0  0  0  0  0  0  0  0  0  0  0
    3.6226    1.4595   20.9435 C   0  0  0  0  0  0  0  0  0  0  0  0
    4.0488    1.1750   19.5337 C   0  0  0  0  0  0  0  0  0  0  0  0
    5.4274    0.6520   19.2581 C   0  0  0  0  0  0  0  0  0  0  0  0
    5.8536    0.3675   17.8483 Cl  0  0  0  0  0  0  0  0  0  0  0  0
    6.3798    0.4136   20.3921 C   0  0  0  0  0  0  0  0  0  0  0  0
    5.9536    0.6981   21.8018 C   0  0  0  0  0  0  0  0  0  0  0  0
   10.4732   -0.7392   23.8863 C   0  0  0  0  0  0  0  0  0  0  0  0
   11.7067    0.0880   23.6769 C   0  0  0  0  0  0  0  0  0  0  0  0
   13.0006   -0.3195   24.3172 N   0  0  0  0  0  0  0  0  0  0  0  0
   13.0608   -1.5541   25.1669 C   0  0  0  0  0  0  0  0  0  0  0  0
   11.8271   -2.3813   25.3763 C   0  0  0  0  0  0  0  0  0  0  0  0
   11.8873   -3.6160   26.2260 C   0  0  0  0  0  0  0  0  0  0  0  0
   10.6536   -4.4432   26.4354 C   0  0  0  0  0  0  0  0  0  0  0  0
    9.3599   -4.0357   25.7951 C   0  0  0  0  0  0  0  0  0  0  0  0
    9.2997   -2.8011   24.9454 C   0  0  0  0  0  0  0  0  0  0  0  0
   10.5333   -1.9739   24.7360 C   0  0  0  0  0  0  0  0  0  0  0  0
    4.6749    1.5517   26.0311 C   0  0  0  0  0  0  0  0  0  0  0  0
    5.6763    1.4825   27.1458 C   0  0  0  0  0  0  0  0  0  0  0  0
    5.6775    0.3099   28.0811 N   0  0  0  0  0  0  0  0  0  0  0  0
    5.5813    0.5313   29.5616 C   0  0  0  0  0  0  0  0  0  0  0  0
    5.5825   -0.6414   30.4969 C   0  0  0  0  0  0  0  0  0  0  0  0
    5.6800   -2.0354   29.9518 O   0  0  0  0  0  0  0  0  0  0  0  0
    5.7762   -2.2568   28.4714 C   0  0  0  0  0  0  0  0  0  0  0  0
    5.8861   -2.9717   27.1573 C   0  0  0  0  0  0  0  0  0  0  0  0
    5.8156   -3.6778   28.9503 C   0  0  0  0  0  0  0  0  0  0  0  0
    5.7750   -1.0841   27.5360 C   0  0  0  0  0  0  0  0  0  0  0  0
    5.6112    1.2579   28.4518 H   0  0  0  0  0  0  0  0  0  0  0  0
  2  1  1  0  0  0
  2  3  1  0  0  0
  3  4  1  0  0  0
  4 19  1  0  0  0
 19 20  2  0  0  0
 20 21  1  0  0  0
 21 22  2  0  0  0
 22 23  1  0  0  0
 23 24  2  0  0  0
 24 25  1  0  0  0
 25 26  2  0  0  0
 26 27  1  0  0  0
 27 28  2  0  0  0
  4  5  1  0  0  0
  5  6  2  0  0  0
  5  7  1  0  0  0
  7  8  1  0  0  0
  8  9  1  0  0  0
  9 29  1  0  0  0
 29 30  1  0  0  0
 31 30  1  0  0  0
 31 32  1  0  0  0
 32 33  1  0  0  0
 33 34  1  0  0  0
 34 35  1  0  0  0
 35 36  1  0  0  0
 35 37  1  0  0  0
 35 38  1  0  0  0
  9 10  1  0  0  0
 10 11  2  0  0  0
 10 12  1  0  0  0
 12 13  2  0  0  0
 13 14  1  0  0  0
 14 15  2  0  0  0
 15 16  1  0  0  0
 15 17  1  0  0  0
 17 18  2  0  0  0
  7  2  1  0  0  0
 38 31  1  0  0  0
 18 12  1  0  0  0
 28 19  1  0  0  0
 18  7  1  0  0  0
 28 23  1  0  0  0
 31 39  1  0  0  0
M  CHG 1  31   1
M  END
> <minimizedAffinity>
-8.50465

> <CNNscore>
0.3465902507

> <CNNaffinity>
6.3079657555

> <CNN_VS>
2.1862795353

> <CNNaffinity_variance>
0.3928702772

$$$$



 39 44  0  0  0  0  0  0  0  0999 V2000
    6.3704   -1.2075   20.6376 C   0  0  0  0  0  0  0  0  0  0  0  0
    6.9332   -0.7538   21.9519 C   0  0  0  0  0  0  0  0  0  0  0  0
    7.6632   -1.8558   22.6610 C   0  0  0  0  0  0  0  0  0  0  0  0
    8.1855   -1.3076   23.9558 N   0  0  0  0  0  0  0  0  0  0  0  0
    7.7784    0.1332   24.0470 C   0  0  0  0  0  0  0  0  0  0  0  0
    8.0905    1.0677   25.1781 O   0  0  0  0  0  0  0  0  0  0  0  0
    7.0044    0.4755   22.8085 C   0  0  0  0  0  0  0  0  0  0  0  0
    7.1579    1.6186   23.7674 C   0  0  0  0  0  0  0  0  0  0  0  0
    6.5601    2.9555   23.4426 N   0  0  0  0  0  0  0  0  0  0  0  0
    5.8088    3.1491   22.1588 C   0  0  0  0  0  0  0  0  0  0  0  0
    5.2110    4.4859   21.8340 O   0  0  0  0  0  0  0  0  0  0  0  0
    5.6553    2.0059   21.1999 C   0  0  0  0  0  0  0  0  0  0  0  0
    4.9040    2.1995   19.9161 C   0  0  0  0  0  0  0  0  0  0  0  0
    4.7506    1.0564   18.9572 C   0  0  0  0  0  0  0  0  0  0  0  0
    5.3484   -0.2805   19.2820 C   0  0  0  0  0  0  0  0  0  0  0  0
    5.1949   -1.4237   18.3230 Cl  0  0  0  0  0  0  0  0  0  0  0  0
    6.0997   -0.4741   20.5658 C   0  0  0  0  0  0  0  0  0  0  0  0
    6.2531    0.6691   21.5247 C   0  0  0  0  0  0  0  0  0  0  0  0
    8.9762   -2.0669   24.9797 C   0  0  0  0  0  0  0  0  0  0  0  0
    8.2783   -2.9946   25.9294 C   0  0  0  0  0  0  0  0  0  0  0  0
    9.0690   -3.7539   26.9533 N   0  0  0  0  0  0  0  0  0  0  0  0
   10.5576   -3.5853   27.0275 C   0  0  0  0  0  0  0  0  0  0  0  0
   11.2556   -2.6574   26.0777 C   0  0  0  0  0  0  0  0  0  0  0  0
   12.7443   -2.4889   26.1519 C   0  0  0  0  0  0  0  0  0  0  0  0
   13.4422   -1.5610   25.2021 C   0  0  0  0  0  0  0  0  0  0  0  0
   12.6514   -0.8018   24.1783 C   0  0  0  0  0  0  0  0  0  0  0  0
   11.1628   -0.9704   24.1041 C   0  0  0  0  0  0  0  0  0  0  0  0
   10.4649   -1.8982   25.0538 C   0  0  0  0  0  0  0  0  0  0  0  0
    6.7135    4.0987   24.4016 C   0  0  0  0  0  0  0  0  0  0  0  0
    7.3320    5.3855   23.9417 C   0  0  0  0  0  0  0  0  0  0  0  0
    8.7446    5.4005   23.4374 N   0  0  0  0  0  0  0  0  0  0  0  0
    9.4257    6.7064   23.1531 C   0  0  0  0  0  0  0  0  0  0  0  0
   10.8382    6.7214   22.6487 C   0  0  0  0  0  0  0  0  0  0  0  0
   11.5698    5.4305   22.4286 O   0  0  0  0  0  0  0  0  0  0  0  0
   10.8888    4.1246   22.7129 C   0  0  0  0  0  0  0  0  0  0  0  0
   10.6722    2.6455   22.8370 C   0  0  0  0  0  0  0  0  0  0  0  0
   12.2261    3.6259   22.2516 C   0  0  0  0  0  0  0  0  0  0  0  0
    9.4761    4.1096   23.2173 C   0  0  0  0  0  0  0  0  0  0  0  0
    8.2472    6.2783   23.5870 H   0  0  0  0  0  0  0  0  0  0  0  0
  2  1  1  0  0  0
  2  3  1  0  0  0
  3  4  1  0  0  0
  4 19  1  0  0  0
 19 20  2  0  0  0
 20 21  1  0  0  0
 21 22  2  0  0  0
 22 23  1  0  0  0
 23 24  2  0  0  0
 24 25  1  0  0  0
 25 26  2  0  0  0
 26 27  1  0  0  0
 27 28  2  0  0  0
  4  5  1  0  0  0
  5  6  2  0  0  0
  5  7  1  0  0  0
  7  8  1  0  0  0
  8  9  1  0  0  0
  9 29  1  0  0  0
 29 30  1  0  0  0
 31 30  1  0  0  0
 31 32  1  0  0  0
 32 33  1  0  0  0
 33 34  1  0  0  0
 34 35  1  0  0  0
 35 36  1  0  0  0
 35 37  1  0  0  0
 35 38  1  0  0  0
  9 10  1  0  0  0
 10 11  2  0  0  0
 10 12  1  0  0  0
 12 13  2  0  0  0
 13 14  1  0  0  0
 14 15  2  0  0  0
 15 16  1  0  0  0
 15 17  1  0  0  0
 17 18  2  0  0  0
  7  2  1  0  0  0
 38 31  1  0  0  0
 18 12  1  0  0  0
 28 19  1  0  0  0
 18  7  1  0  0  0
 28 23  1  0  0  0
 31 39  1  0  0  0
M  CHG 1  31   1
M  END
> <minimizedAffinity>
-8.32863

> <CNNscore>
0.3389958739

> <CNNaffinity>
6.9272742271

> <CNN_VS>
2.3483173847

> <CNNaffinity_variance>
0.0674392208

$$$$



 39 44  0  0  0  0  0  0  0  0999 V2000
   10.9486   -2.5086   24.8766 C   0  0  0  0  0  0  0  0  0  0  0  0
    9.5580   -2.7727   24.3801 C   0  0  0  0  0  0  0  0  0  0  0  0
    9.0018   -4.0557   24.9229 C   0  0  0  0  0  0  0  0  0  0  0  0
    7.6172   -4.2301   24.3729 N   0  0  0  0  0  0  0  0  0  0  0  0
    7.3177   -3.0549   23.4902 C   0  0  0  0  0  0  0  0  0  0  0  0
    6.0426   -2.8214   22.7356 O   0  0  0  0  0  0  0  0  0  0  0  0
    8.5171   -2.1541   23.4947 C   0  0  0  0  0  0  0  0  0  0  0  0
    7.3855   -1.6590   22.6437 C   0  0  0  0  0  0  0  0  0  0  0  0
    7.5204   -0.3667   21.8942 N   0  0  0  0  0  0  0  0  0  0  0  0
    8.7869    0.4305   21.9958 C   0  0  0  0  0  0  0  0  0  0  0  0
    8.9218    1.7229   21.2464 O   0  0  0  0  0  0  0  0  0  0  0  0
    9.9186   -0.0646   22.8469 C   0  0  0  0  0  0  0  0  0  0  0  0
   11.1851    0.7326   22.9485 C   0  0  0  0  0  0  0  0  0  0  0  0
   12.3167    0.2375   23.7995 C   0  0  0  0  0  0  0  0  0  0  0  0
   12.1818   -1.0548   24.5489 C   0  0  0  0  0  0  0  0  0  0  0  0
   13.3135   -1.5500   25.3999 Cl  0  0  0  0  0  0  0  0  0  0  0  0
   10.9153   -1.8521   24.4473 C   0  0  0  0  0  0  0  0  0  0  0  0
    9.7837   -1.3569   23.5963 C   0  0  0  0  0  0  0  0  0  0  0  0
    6.6942   -5.3781   24.6559 C   0  0  0  0  0  0  0  0  0  0  0  0
    7.0189   -6.7472   24.1363 C   0  0  0  0  0  0  0  0  0  0  0  0
    6.0959   -7.8952   24.4193 N   0  0  0  0  0  0  0  0  0  0  0  0
    4.8482   -7.6741   25.2220 C   0  0  0  0  0  0  0  0  0  0  0  0
    4.5235   -6.3049   25.7417 C   0  0  0  0  0  0  0  0  0  0  0  0
    3.2758   -6.0838   26.5444 C   0  0  0  0  0  0  0  0  0  0  0  0
    2.9512   -4.7147   27.0641 C   0  0  0  0  0  0  0  0  0  0  0  0
    3.8742   -3.5668   26.7810 C   0  0  0  0  0  0  0  0  0  0  0  0
    5.1219   -3.7879   25.9783 C   0  0  0  0  0  0  0  0  0  0  0  0
    5.4465   -5.1569   25.4587 C   0  0  0  0  0  0  0  0  0  0  0  0
    6.3887    0.1285   21.0432 C   0  0  0  0  0  0  0  0  0  0  0  0
    6.2951    1.5838   20.6925 C   0  0  0  0  0  0  0  0  0  0  0  0
    4.9602    2.1986   20.3925 N   0  0  0  0  0  0  0  0  0  0  0  0
    4.0688    1.5858   19.3533 C   0  0  0  0  0  0  0  0  0  0  0  0
    2.7338    2.2005   19.0533 C   0  0  0  0  0  0  0  0  0  0  0  0
    2.2903    3.4281   19.7925 O   0  0  0  0  0  0  0  0  0  0  0  0
    3.1816    4.0409   20.8317 C   0  0  0  0  0  0  0  0  0  0  0  0
    3.6680    4.9805   21.8949 C   0  0  0  0  0  0  0  0  0  0  0  0
    2.0156    4.9819   20.9010 C   0  0  0  0  0  0  0  0  0  0  0  0
    4.5166    3.4261   21.1317 C   0  0  0  0  0  0  0  0  0  0  0  0
    5.2618    1.3639   19.8898 H   0  0  0  0  0  0  0  0  0  0  0  0
  2  1  1  0  0  0
  2  3  1  0  0  0
  3  4  1  0  0  0
  4 19  1  0  0  0
 19 20  2  0  0  0
 20 21  1  0  0  0
 21 22  2  0  0  0
 22 23  1  0  0  0
 23 24  2  0  0  0
 24 25  1  0  0  0
 25 26  2  0  0  0
 26 27  1  0  0  0
 27 28  2  0  0  0
  4  5  1  0  0  0
  5  6  2  0  0  0
  5  7  1  0  0  0
  7  8  1  0  0  0
  8  9  1  0  0  0
  9 29  1  0  0  0
 29 30  1  0  0  0
 31 30  1  0  0  0
 31 32  1  0  0  0
 32 33  1  0  0  0
 33 34  1  0  0  0
 34 35  1  0  0  0
 35 36  1  0  0  0
 35 37  1  0  0  0
 35 38  1  0  0  0
  9 10  1  0  0  0
 10 11  2  0  0  0
 10 12  1  0  0  0
 12 13  2  0  0  0
 13 14  1  0  0  0
 14 15  2  0  0  0
 15 16  1  0  0  0
 15 17  1  0  0  0
 17 18  2  0  0  0
  7  2  1  0  0  0
 38 31  1  0  0  0
 18 12  1  0  0  0
 28 19  1  0  0  0
 18  7  1  0  0  0
 28 23  1  0  0  0
 31 39  1  0  0  0
M  CHG 1  31   1
M  END
> <minimizedAffinity>
-9.41258

> <CNNscore>
0.3233188391

> <CNNaffinity>
6.5892958641

> <CNN_VS>
2.1304435730

> <CNNaffinity_variance>
0.0390533060

$$$$



 39 44  0  0  0  0  0  0  0  0999 V2000
    3.4665    2.5776   21.5255 C   0  0  0  0  0  0  0  0  0  0  0  0
    4.5584    2.0494   22.4081 C   0  0  0  0  0  0  0  0  0  0  0  0
    4.3744    2.4628   23.8382 C   0  0  0  0  0  0  0  0  0  0  0  0
    5.5081    1.8899   24.6359 N   0  0  0  0  0  0  0  0  0  0  0  0
    6.3928    1.1223   23.6987 C   0  0  0  0  0  0  0  0  0  0  0  0
    7.6447    0.3856   24.0729 O   0  0  0  0  0  0  0  0  0  0  0  0
    5.8059    1.2209   22.3219 C   0  0  0  0  0  0  0  0  0  0  0  0
    7.0687    0.4143   22.3904 C   0  0  0  0  0  0  0  0  0  0  0  0
    7.6305   -0.2065   21.1459 N   0  0  0  0  0  0  0  0  0  0  0  0
    6.9296   -0.0208   19.8328 C   0  0  0  0  0  0  0  0  0  0  0  0
    7.4915   -0.6417   18.5883 O   0  0  0  0  0  0  0  0  0  0  0  0
    5.6668    0.7858   19.7642 C   0  0  0  0  0  0  0  0  0  0  0  0
    4.9659    0.9715   18.4512 C   0  0  0  0  0  0  0  0  0  0  0  0
    3.7031    1.7781   18.3826 C   0  0  0  0  0  0  0  0  0  0  0  0
    3.1412    2.3990   19.6272 C   0  0  0  0  0  0  0  0  0  0  0  0
    1.8784    3.2056   19.5586 Cl  0  0  0  0  0  0  0  0  0  0  0  0
    3.8421    2.2133   20.9402 C   0  0  0  0  0  0  0  0  0  0  0  0
    5.1049    1.4067   21.0088 C   0  0  0  0  0  0  0  0  0  0  0  0
    5.7200    2.0554   26.1116 C   0  0  0  0  0  0  0  0  0  0  0  0
    6.1255    3.3887   26.6661 C   0  0  0  0  0  0  0  0  0  0  0  0
    6.3374    3.5542   28.1418 N   0  0  0  0  0  0  0  0  0  0  0  0
    6.1437    2.3863   29.0629 C   0  0  0  0  0  0  0  0  0  0  0  0
    5.7382    1.0529   28.5083 C   0  0  0  0  0  0  0  0  0  0  0  0
    5.5445   -0.1151   29.4295 C   0  0  0  0  0  0  0  0  0  0  0  0
    5.1390   -1.4485   28.8748 C   0  0  0  0  0  0  0  0  0  0  0  0
    4.9272   -1.6139   27.3992 C   0  0  0  0  0  0  0  0  0  0  0  0
    5.1208   -0.4460   26.4781 C   0  0  0  0  0  0  0  0  0  0  0  0
    5.5263    0.8874   27.0326 C   0  0  0  0  0  0  0  0  0  0  0  0
    8.8934   -1.0132   21.2145 C   0  0  0  0  0  0  0  0  0  0  0  0
    9.1710   -1.8713   22.4130 C   0  0  0  0  0  0  0  0  0  0  0  0
   10.4513   -1.7024   23.1760 N   0  0  0  0  0  0  0  0  0  0  0  0
   11.4860   -0.7269   22.6984 C   0  0  0  0  0  0  0  0  0  0  0  0
   12.7663   -0.5580   23.4614 C   0  0  0  0  0  0  0  0  0  0  0  0
   13.0120   -1.3645   24.7020 O   0  0  0  0  0  0  0  0  0  0  0  0
   11.9775   -2.3399   25.1796 C   0  0  0  0  0  0  0  0  0  0  0  0
   11.3066   -3.3824   26.0242 C   0  0  0  0  0  0  0  0  0  0  0  0
   13.0248   -2.5331   26.2359 C   0  0  0  0  0  0  0  0  0  0  0  0
   10.6971   -2.5089   24.4166 C   0  0  0  0  0  0  0  0  0  0  0  0
   10.2842   -1.1540   22.3324 H   0  0  0  0  0  0  0  0  0  0  0  0
  2  1  1  0  0  0
  2  3  1  0  0  0
  3  4  1  0  0  0
  4 19  1  0  0  0
 19 20  2  0  0  0
 20 21  1  0  0  0
 21 22  2  0  0  0
 22 23  1  0  0  0
 23 24  2  0  0  0
 24 25  1  0  0  0
 25 26  2  0  0  0
 26 27  1  0  0  0
 27 28  2  0  0  0
  4  5  1  0  0  0
  5  6  2  0  0  0
  5  7  1  0  0  0
  7  8  1  0  0  0
  8  9  1  0  0  0
  9 29  1  0  0  0
 29 30  1  0  0  0
 31 30  1  0  0  0
 31 32  1  0  0  0
 32 33  1  0  0  0
 33 34  1  0  0  0
 34 35  1  0  0  0
 35 36  1  0  0  0
 35 37  1  0  0  0
 35 38  1  0  0  0
  9 10  1  0  0  0
 10 11  2  0  0  0
 10 12  1  0  0  0
 12 13  2  0  0  0
 13 14  1  0  0  0
 14 15  2  0  0  0
 15 16  1  0  0  0
 15 17  1  0  0  0
 17 18  2  0  0  0
  7  2  1  0  0  0
 38 31  1  0  0  0
 18 12  1  0  0  0
 28 19  1  0  0  0
 18  7  1  0  0  0
 28 23  1  0  0  0
 31 39  1  0  0  0
M  CHG 1  31   1
M  END
> <minimizedAffinity>
-8.41456

> <CNNscore>
0.3090817034

> <CNNaffinity>
6.5678892136

> <CNN_VS>
2.0300142765

> <CNNaffinity_variance>
0.0160460435

$$$$
