


 23 25  0  0  0  0  0  0  0  0999 V2000
    6.0303   -3.2046   22.3662 O   0  0  0  0  0  0  0  0  0  0  0  0
    6.3951   -1.7538   22.2559 C   0  0  0  0  0  0  0  0  0  0  0  0
    7.8282   -1.3291   22.3819 N   0  0  0  0  0  0  0  0  0  0  0  0
    8.1931    0.1216   22.2715 C   0  0  0  0  0  0  0  0  0  0  0  0
    9.6262    0.5463   22.3976 C   0  0  0  0  0  0  0  0  0  0  0  0
   10.6944   -0.4798   22.6340 C   0  0  0  0  0  0  0  0  0  0  0  0
   10.3296   -1.9306   22.7444 C   0  0  0  0  0  0  0  0  0  0  0  0
    8.8965   -2.3553   22.6184 C   0  0  0  0  0  0  0  0  0  0  0  0
   12.1275   -0.0551   22.7601 C   0  0  0  0  0  0  0  0  0  0  0  0
   13.5606    0.3695   22.8861 F   0  0  0  0  0  0  0  0  0  0  0  0
   12.4762   -0.8734   21.5523 F   0  0  0  0  0  0  0  0  0  0  0  0
   11.7788    0.7631   23.9679 F   0  0  0  0  0  0  0  0  0  0  0  0
    5.3269   -0.7277   22.0194 C   0  0  0  0  0  0  0  0  0  0  0  0
    5.1128   -0.1713   20.6430 C   0  0  0  0  0  0  0  0  0  0  0  0
    5.8912   -0.7185   19.4834 C   0  0  0  0  0  0  0  0  0  0  0  0
    5.6772   -0.1621   18.1070 N   0  0  0  0  0  0  0  0  0  0  0  0
    4.6846    0.9414   17.8901 C   0  0  0  0  0  0  0  0  0  0  0  0
    3.9061    1.4886   19.0497 C   0  0  0  0  0  0  0  0  0  0  0  0
    2.9136    2.5922   18.8328 C   0  0  0  0  0  0  0  0  0  0  0  0
    2.1352    3.1393   19.9923 C   0  0  0  0  0  0  0  0  0  0  0  0
    2.3492    2.5829   21.3688 C   0  0  0  0  0  0  0  0  0  0  0  0
    3.3418    1.4794   21.5857 C   0  0  0  0  0  0  0  0  0  0  0  0
    4.1202    0.9323   20.4261 C   0  0  0  0  0  0  0  0  0  0  0  0
  1  2  2  0  0  0
  2 13  1  0  0  0
 13 14  1  0  0  0
 14 15  2  0  0  0
 15 16  1  0  0  0
 16 17  2  0  0  0
 17 18  1  0  0  0
 18 19  2  0  0  0
 19 20  1  0  0  0
 20 21  2  0  0  0
 21 22  1  0  0  0
 22 23  2  0  0  0
  2  3  1  0  0  0
  3  4  1  0  0  0
  4  5  1  0  0  0
  5  6  1  0  0  0
  6  9  1  0  0  0
  9 10  1  0  0  0
  9 11  1  0  0  0
  9 12  1  0  0  0
  6  7  1  0  0  0
  7  8  1  0  0  0
 23 14  1  0  0  0
  8  3  1  0  0  0
 23 18  1  0  0  0
M  END
> <minimizedAffinity>
-7.15228

> <CNNscore>
0.6686924100

> <CNNaffinity>
5.5835609436

> <CNN_VS>
3.7336847782

> <CNNaffinity_variance>
0.3766094148

$$$$



 23 25  0  0  0  0  0  0  0  0999 V2000
    6.8323   -1.9702   22.1015 O   0  0  0  0  0  0  0  0  0  0  0  0
    8.0673   -1.1243   22.0034 C   0  0  0  0  0  0  0  0  0  0  0  0
    9.2589   -1.4348   22.8599 N   0  0  0  0  0  0  0  0  0  0  0  0
   10.4938   -0.5890   22.7618 C   0  0  0  0  0  0  0  0  0  0  0  0
   11.6855   -0.8994   23.6183 C   0  0  0  0  0  0  0  0  0  0  0  0
   11.6422   -2.0556   24.5729 C   0  0  0  0  0  0  0  0  0  0  0  0
   10.4073   -2.9015   24.6710 C   0  0  0  0  0  0  0  0  0  0  0  0
    9.2156   -2.5911   23.8145 C   0  0  0  0  0  0  0  0  0  0  0  0
   12.8339   -2.3661   25.4294 C   0  0  0  0  0  0  0  0  0  0  0  0
   14.0256   -2.6765   26.2858 F   0  0  0  0  0  0  0  0  0  0  0  0
   12.1282   -3.5724   25.9740 F   0  0  0  0  0  0  0  0  0  0  0  0
   13.5396   -1.1597   24.8847 F   0  0  0  0  0  0  0  0  0  0  0  0
    8.1105    0.0319   21.0488 C   0  0  0  0  0  0  0  0  0  0  0  0
    6.9779    0.2567   20.0914 C   0  0  0  0  0  0  0  0  0  0  0  0
    6.8863   -0.5558   18.8339 C   0  0  0  0  0  0  0  0  0  0  0  0
    5.7537   -0.3309   17.8765 N   0  0  0  0  0  0  0  0  0  0  0  0
    4.7127    0.7065   18.1765 C   0  0  0  0  0  0  0  0  0  0  0  0
    4.8043    1.5192   19.4340 C   0  0  0  0  0  0  0  0  0  0  0  0
    3.7634    2.5566   19.7341 C   0  0  0  0  0  0  0  0  0  0  0  0
    3.8550    3.3692   20.9915 C   0  0  0  0  0  0  0  0  0  0  0  0
    4.9876    3.1443   21.9490 C   0  0  0  0  0  0  0  0  0  0  0  0
    6.0285    2.1068   21.6489 C   0  0  0  0  0  0  0  0  0  0  0  0
    5.9369    1.2943   20.3915 C   0  0  0  0  0  0  0  0  0  0  0  0
  1  2  2  0  0  0
  2 13  1  0  0  0
 13 14  1  0  0  0
 14 15  2  0  0  0
 15 16  1  0  0  0
 16 17  2  0  0  0
 17 18  1  0  0  0
 18 19  2  0  0  0
 19 20  1  0  0  0
 20 21  2  0  0  0
 21 22  1  0  0  0
 22 23  2  0  0  0
  2  3  1  0  0  0
  3  4  1  0  0  0
  4  5  1  0  0  0
  5  6  1  0  0  0
  6  9  1  0  0  0
  9 10  1  0  0  0
  9 11  1  0  0  0
  9 12  1  0  0  0
  6  7  1  0  0  0
  7  8  1  0  0  0
 23 14  1  0  0  0
  8  3  1  0  0  0
 23 18  1  0  0  0
M  END
> <minimizedAffinity>
-7.73822

> <CNNscore>
0.6495862007

> <CNNaffinity>
5.5246300697

> <CNN_VS>
3.5887234211

> <CNNaffinity_variance>
0.1160825118

$$$$



 23 25  0  0  0  0  0  0  0  0999 V2000
    8.6508    2.1383   21.2817 O   0  0  0  0  0  0  0  0  0  0  0  0
    8.5452    0.7283   21.7828 C   0  0  0  0  0  0  0  0  0  0  0  0
    9.6613    0.1335   22.5893 N   0  0  0  0  0  0  0  0  0  0  0  0
    9.5558   -1.2763   23.0904 C   0  0  0  0  0  0  0  0  0  0  0  0
   10.6719   -1.8712   23.8969 C   0  0  0  0  0  0  0  0  0  0  0  0
   11.8936   -1.0562   24.2023 C   0  0  0  0  0  0  0  0  0  0  0  0
   11.9992    0.3537   23.7012 C   0  0  0  0  0  0  0  0  0  0  0  0
   10.8830    0.9486   22.8947 C   0  0  0  0  0  0  0  0  0  0  0  0
   13.0097   -1.6510   25.0088 C   0  0  0  0  0  0  0  0  0  0  0  0
   14.1258   -2.2459   25.8152 F   0  0  0  0  0  0  0  0  0  0  0  0
   12.4115   -1.0781   26.2593 F   0  0  0  0  0  0  0  0  0  0  0  0
   13.6080   -2.2240   23.7582 F   0  0  0  0  0  0  0  0  0  0  0  0
    7.3235   -0.0866   21.4775 C   0  0  0  0  0  0  0  0  0  0  0  0
    6.4707    0.2555   20.2919 C   0  0  0  0  0  0  0  0  0  0  0  0
    6.7772   -0.3412   18.9503 C   0  0  0  0  0  0  0  0  0  0  0  0
    5.9244    0.0010   17.7647 N   0  0  0  0  0  0  0  0  0  0  0  0
    4.7651    0.9399   17.9207 C   0  0  0  0  0  0  0  0  0  0  0  0
    4.4586    1.5367   19.2623 C   0  0  0  0  0  0  0  0  0  0  0  0
    3.2993    2.4756   19.4183 C   0  0  0  0  0  0  0  0  0  0  0  0
    2.9928    3.0724   20.7599 C   0  0  0  0  0  0  0  0  0  0  0  0
    3.8456    2.7302   21.9455 C   0  0  0  0  0  0  0  0  0  0  0  0
    5.0049    1.7913   21.7895 C   0  0  0  0  0  0  0  0  0  0  0  0
    5.3114    1.1945   20.4479 C   0  0  0  0  0  0  0  0  0  0  0  0
  1  2  2  0  0  0
  2 13  1  0  0  0
 13 14  1  0  0  0
 14 15  2  0  0  0
 15 16  1  0  0  0
 16 17  2  0  0  0
 17 18  1  0  0  0
 18 19  2  0  0  0
 19 20  1  0  0  0
 20 21  2  0  0  0
 21 22  1  0  0  0
 22 23  2  0  0  0
  2  3  1  0  0  0
  3  4  1  0  0  0
  4  5  1  0  0  0
  5  6  1  0  0  0
  6  9  1  0  0  0
  9 10  1  0  0  0
  9 11  1  0  0  0
  9 12  1  0  0  0
  6  7  1  0  0  0
  7  8  1  0  0  0
 23 14  1  0  0  0
  8  3  1  0  0  0
 23 18  1  0  0  0
M  END
> <minimizedAffinity>
-8.16153

> <CNNscore>
0.6124465466

> <CNNaffinity>
5.5823850632

> <CNN_VS>
3.4189124107

> <CNNaffinity_variance>
0.2222563922

$$$$



 23 25  0  0  0  0  0  0  0  0999 V2000
    8.5781    1.5462   21.2286 O   0  0  0  0  0  0  0  0  0  0  0  0
    8.3185    0.1494   21.7101 C   0  0  0  0  0  0  0  0  0  0  0  0
    9.2273   -0.4743   22.7275 N   0  0  0  0  0  0  0  0  0  0  0  0
    8.9677   -1.8710   23.2090 C   0  0  0  0  0  0  0  0  0  0  0  0
    9.8765   -2.4946   24.2263 C   0  0  0  0  0  0  0  0  0  0  0  0
   11.0450   -1.7216   24.7622 C   0  0  0  0  0  0  0  0  0  0  0  0
   11.3046   -0.3249   24.2808 C   0  0  0  0  0  0  0  0  0  0  0  0
   10.3958    0.2988   23.2634 C   0  0  0  0  0  0  0  0  0  0  0  0
   11.9538   -2.3453   25.7796 C   0  0  0  0  0  0  0  0  0  0  0  0
   12.8626   -2.9690   26.7970 F   0  0  0  0  0  0  0  0  0  0  0  0
   11.3858   -3.6961   25.4589 F   0  0  0  0  0  0  0  0  0  0  0  0
   12.5218   -0.9946   26.1003 F   0  0  0  0  0  0  0  0  0  0  0  0
    7.1501   -0.6236   21.1742 C   0  0  0  0  0  0  0  0  0  0  0  0
    6.2914   -0.0331   20.0953 C   0  0  0  0  0  0  0  0  0  0  0  0
    6.6988   -0.1625   18.6575 C   0  0  0  0  0  0  0  0  0  0  0  0
    5.8401    0.4280   17.5786 N   0  0  0  0  0  0  0  0  0  0  0  0
    4.5741    1.1479   17.9375 C   0  0  0  0  0  0  0  0  0  0  0  0
    4.1667    1.2774   19.3754 C   0  0  0  0  0  0  0  0  0  0  0  0
    2.9006    1.9973   19.7343 C   0  0  0  0  0  0  0  0  0  0  0  0
    2.4933    2.1267   21.1721 C   0  0  0  0  0  0  0  0  0  0  0  0
    3.3519    1.5362   22.2510 C   0  0  0  0  0  0  0  0  0  0  0  0
    4.6180    0.8163   21.8921 C   0  0  0  0  0  0  0  0  0  0  0  0
    5.0253    0.6869   20.4543 C   0  0  0  0  0  0  0  0  0  0  0  0
  1  2  2  0  0  0
  2 13  1  0  0  0
 13 14  1  0  0  0
 14 15  2  0  0  0
 15 16  1  0  0  0
 16 17  2  0  0  0
 17 18  1  0  0  0
 18 19  2  0  0  0
 19 20  1  0  0  0
 20 21  2  0  0  0
 21 22  1  0  0  0
 22 23  2  0  0  0
  2  3  1  0  0  0
  3  4  1  0  0  0
  4  5  1  0  0  0
  5  6  1  0  0  0
  6  9  1  0  0  0
  9 10  1  0  0  0
  9 11  1  0  0  0
  9 12  1  0  0  0
  6  7  1  0  0  0
  7  8  1  0  0  0
 23 14  1  0  0  0
  8  3  1  0  0  0
 23 18  1  0  0  0
M  END
> <minimizedAffinity>
-7.75925

> <CNNscore>
0.5770093799

> <CNNaffinity>
5.3461899757

> <CNN_VS>
3.0848016739

> <CNNaffinity_variance>
0.0684254393

$$$$



 23 25  0  0  0  0  0  0  0  0999 V2000
    7.5539   -0.9210   22.0080 O   0  0  0  0  0  0  0  0  0  0  0  0
    9.0013   -0.6579   22.3014 C   0  0  0  0  0  0  0  0  0  0  0  0
    9.4923    0.7517   22.4494 N   0  0  0  0  0  0  0  0  0  0  0  0
   10.9395    1.0149   22.7428 C   0  0  0  0  0  0  0  0  0  0  0  0
   11.4305    2.4245   22.8908 C   0  0  0  0  0  0  0  0  0  0  0  0
   10.4743    3.5709   22.7455 C   0  0  0  0  0  0  0  0  0  0  0  0
    9.0269    3.3078   22.4521 C   0  0  0  0  0  0  0  0  0  0  0  0
    8.5359    1.8982   22.3040 C   0  0  0  0  0  0  0  0  0  0  0  0
   10.9653    4.9806   22.8935 C   0  0  0  0  0  0  0  0  0  0  0  0
   11.4563    6.3902   23.0415 F   0  0  0  0  0  0  0  0  0  0  0  0
    9.5703    5.4334   23.2080 F   0  0  0  0  0  0  0  0  0  0  0  0
   12.3603    4.5277   22.5790 F   0  0  0  0  0  0  0  0  0  0  0  0
    9.9575   -1.8043   22.4467 C   0  0  0  0  0  0  0  0  0  0  0  0
    9.9428   -2.6400   23.6923 C   0  0  0  0  0  0  0  0  0  0  0  0
    8.7306   -3.4543   24.0348 C   0  0  0  0  0  0  0  0  0  0  0  0
    8.7159   -4.2900   25.2804 N   0  0  0  0  0  0  0  0  0  0  0  0
    9.9134   -4.3113   26.1834 C   0  0  0  0  0  0  0  0  0  0  0  0
   11.1257   -3.4970   25.8409 C   0  0  0  0  0  0  0  0  0  0  0  0
   12.3232   -3.5183   26.7439 C   0  0  0  0  0  0  0  0  0  0  0  0
   13.5354   -2.7040   26.4014 C   0  0  0  0  0  0  0  0  0  0  0  0
   13.5501   -1.8684   25.1558 C   0  0  0  0  0  0  0  0  0  0  0  0
   12.3526   -1.8470   24.2528 C   0  0  0  0  0  0  0  0  0  0  0  0
   11.1404   -2.6613   24.5953 C   0  0  0  0  0  0  0  0  0  0  0  0
  1  2  2  0  0  0
  2 13  1  0  0  0
 13 14  1  0  0  0
 14 15  2  0  0  0
 15 16  1  0  0  0
 16 17  2  0  0  0
 17 18  1  0  0  0
 18 19  2  0  0  0
 19 20  1  0  0  0
 20 21  2  0  0  0
 21 22  1  0  0  0
 22 23  2  0  0  0
  2  3  1  0  0  0
  3  4  1  0  0  0
  4  5  1  0  0  0
  5  6  1  0  0  0
  6  9  1  0  0  0
  9 10  1  0  0  0
  9 11  1  0  0  0
  9 12  1  0  0  0
  6  7  1  0  0  0
  7  8  1  0  0  0
 23 14  1  0  0  0
  8  3  1  0  0  0
 23 18  1  0  0  0
M  END
> <minimizedAffinity>
-7.17484

> <CNNscore>
0.4888475835

> <CNNaffinity>
5.6250762939

> <CNN_VS>
2.7498049736

> <CNNaffinity_variance>
0.1590491384

$$$$



 23 25  0  0  0  0  0  0  0  0999 V2000
    6.8171    2.0398   23.3397 O   0  0  0  0  0  0  0  0  0  0  0  0
    7.1075    0.6947   22.7426 C   0  0  0  0  0  0  0  0  0  0  0  0
    8.4686    0.0836   22.8972 N   0  0  0  0  0  0  0  0  0  0  0  0
    8.7591   -1.2614   22.3002 C   0  0  0  0  0  0  0  0  0  0  0  0
   10.1202   -1.8725   22.4548 C   0  0  0  0  0  0  0  0  0  0  0  0
   11.1908   -1.1387   23.2064 C   0  0  0  0  0  0  0  0  0  0  0  0
   10.9004    0.2064   23.8035 C   0  0  0  0  0  0  0  0  0  0  0  0
    9.5393    0.8176   23.6489 C   0  0  0  0  0  0  0  0  0  0  0  0
   12.5519   -1.7498   23.3611 C   0  0  0  0  0  0  0  0  0  0  0  0
   13.9131   -2.3609   23.5157 F   0  0  0  0  0  0  0  0  0  0  0  0
   12.0308   -2.6336   24.4552 F   0  0  0  0  0  0  0  0  0  0  0  0
   13.0731   -0.8659   22.2669 F   0  0  0  0  0  0  0  0  0  0  0  0
    6.0369   -0.0392   21.9909 C   0  0  0  0  0  0  0  0  0  0  0  0
    5.6767    0.3812   20.5968 C   0  0  0  0  0  0  0  0  0  0  0  0
    6.5819    0.0354   19.4518 C   0  0  0  0  0  0  0  0  0  0  0  0
    6.2218    0.4557   18.0576 N   0  0  0  0  0  0  0  0  0  0  0  0
    4.9565    1.2219   17.8085 C   0  0  0  0  0  0  0  0  0  0  0  0
    4.0513    1.5677   18.9536 C   0  0  0  0  0  0  0  0  0  0  0  0
    2.7860    2.3339   18.7044 C   0  0  0  0  0  0  0  0  0  0  0  0
    1.8809    2.6797   19.8494 C   0  0  0  0  0  0  0  0  0  0  0  0
    2.2410    2.2593   21.2436 C   0  0  0  0  0  0  0  0  0  0  0  0
    3.5063    1.4932   21.4927 C   0  0  0  0  0  0  0  0  0  0  0  0
    4.4114    1.1474   20.3477 C   0  0  0  0  0  0  0  0  0  0  0  0
  1  2  2  0  0  0
  2 13  1  0  0  0
 13 14  1  0  0  0
 14 15  2  0  0  0
 15 16  1  0  0  0
 16 17  2  0  0  0
 17 18  1  0  0  0
 18 19  2  0  0  0
 19 20  1  0  0  0
 20 21  2  0  0  0
 21 22  1  0  0  0
 22 23  2  0  0  0
  2  3  1  0  0  0
  3  4  1  0  0  0
  4  5  1  0  0  0
  5  6  1  0  0  0
  6  9  1  0  0  0
  9 10  1  0  0  0
  9 11  1  0  0  0
  9 12  1  0  0  0
  6  7  1  0  0  0
  7  8  1  0  0  0
 23 14  1  0  0  0
  8  3  1  0  0  0
 23 18  1  0  0  0
M  END
> <minimizedAffinity>
-7.12076

> <CNNscore>
0.4885177314

> <CNNaffinity>
5.4423108101

> <CNN_VS>
2.6586654186

> <CNNaffinity_variance>
0.0432780609

$$$$



 23 25  0  0  0  0  0  0  0  0999 V2000
    8.0758   -0.3140   22.6666 O   0  0  0  0  0  0  0  0  0  0  0  0
    9.5013    0.1449   22.5809 C   0  0  0  0  0  0  0  0  0  0  0  0
    9.8261    1.6059   22.6802 N   0  0  0  0  0  0  0  0  0  0  0  0
   11.2515    2.0649   22.5946 C   0  0  0  0  0  0  0  0  0  0  0  0
   11.5763    3.5259   22.6938 C   0  0  0  0  0  0  0  0  0  0  0  0
   10.4756    4.5280   22.8787 C   0  0  0  0  0  0  0  0  0  0  0  0
    9.0501    4.0691   22.9643 C   0  0  0  0  0  0  0  0  0  0  0  0
    8.7253    2.6081   22.8651 C   0  0  0  0  0  0  0  0  0  0  0  0
   10.8004    5.9891   22.9780 C   0  0  0  0  0  0  0  0  0  0  0  0
   11.1252    7.4501   23.0772 F   0  0  0  0  0  0  0  0  0  0  0  0
   12.1243    5.7396   22.3184 F   0  0  0  0  0  0  0  0  0  0  0  0
    9.4765    6.2386   23.6375 F   0  0  0  0  0  0  0  0  0  0  0  0
   10.6020   -0.8572   22.3961 C   0  0  0  0  0  0  0  0  0  0  0  0
   11.4047   -1.3160   23.5772 C   0  0  0  0  0  0  0  0  0  0  0  0
   12.7435   -0.7009   23.8587 C   0  0  0  0  0  0  0  0  0  0  0  0
   13.5463   -1.1598   25.0399 N   0  0  0  0  0  0  0  0  0  0  0  0
   13.0102   -2.2336   25.9395 C   0  0  0  0  0  0  0  0  0  0  0  0
   11.6714   -2.8488   25.6580 C   0  0  0  0  0  0  0  0  0  0  0  0
   11.1354   -3.9227   26.5577 C   0  0  0  0  0  0  0  0  0  0  0  0
    9.7966   -4.5377   26.2762 C   0  0  0  0  0  0  0  0  0  0  0  0
    8.9938   -4.0789   25.0950 C   0  0  0  0  0  0  0  0  0  0  0  0
    9.5299   -3.0051   24.1954 C   0  0  0  0  0  0  0  0  0  0  0  0
   10.8686   -2.3900   24.4769 C   0  0  0  0  0  0  0  0  0  0  0  0
  1  2  2  0  0  0
  2 13  1  0  0  0
 13 14  1  0  0  0
 14 15  2  0  0  0
 15 16  1  0  0  0
 16 17  2  0  0  0
 17 18  1  0  0  0
 18 19  2  0  0  0
 19 20  1  0  0  0
 20 21  2  0  0  0
 21 22  1  0  0  0
 22 23  2  0  0  0
  2  3  1  0  0  0
  3  4  1  0  0  0
  4  5  1  0  0  0
  5  6  1  0  0  0
  6  9  1  0  0  0
  9 10  1  0  0  0
  9 11  1  0  0  0
  9 12  1  0  0  0
  6  7  1  0  0  0
  7  8  1  0  0  0
 23 14  1  0  0  0
  8  3  1  0  0  0
 23 18  1  0  0  0
M  END
> <minimizedAffinity>
-6.72685

> <CNNscore>
0.3987503946

> <CNNaffinity>
5.5191655159

> <CNN_VS>
2.2007694244

> <CNNaffinity_variance>
0.0765604153

$$$$



 23 25  0  0  0  0  0  0  0  0999 V2000
    6.4496   -3.0298   22.3130 O   0  0  0  0  0  0  0  0  0  0  0  0
    7.3198   -1.8094   22.2530 C   0  0  0  0  0  0  0  0  0  0  0  0
    6.7074   -0.4633   22.0020 N   0  0  0  0  0  0  0  0  0  0  0  0
    7.5775    0.7570   21.9419 C   0  0  0  0  0  0  0  0  0  0  0  0
    6.9652    2.1032   21.6910 C   0  0  0  0  0  0  0  0  0  0  0  0
    5.4827    2.2290   21.5002 C   0  0  0  0  0  0  0  0  0  0  0  0
    4.6125    1.0086   21.5603 C   0  0  0  0  0  0  0  0  0  0  0  0
    5.2249   -0.3376   21.8112 C   0  0  0  0  0  0  0  0  0  0  0  0
    4.8704    3.5751   21.2493 C   0  0  0  0  0  0  0  0  0  0  0  0
    4.2580    4.9212   20.9983 F   0  0  0  0  0  0  0  0  0  0  0  0
    4.2628    3.0617   19.9776 F   0  0  0  0  0  0  0  0  0  0  0  0
    5.4779    4.0885   22.5210 F   0  0  0  0  0  0  0  0  0  0  0  0
    8.8022   -1.9352   22.4438 C   0  0  0  0  0  0  0  0  0  0  0  0
    9.3455   -2.6957   23.6170 C   0  0  0  0  0  0  0  0  0  0  0  0
    8.5550   -3.8237   24.2108 C   0  0  0  0  0  0  0  0  0  0  0  0
    9.0983   -4.5842   25.3841 N   0  0  0  0  0  0  0  0  0  0  0  0
   10.4321   -4.2167   25.9635 C   0  0  0  0  0  0  0  0  0  0  0  0
   11.2227   -3.0886   25.3697 C   0  0  0  0  0  0  0  0  0  0  0  0
   12.5566   -2.7211   25.9492 C   0  0  0  0  0  0  0  0  0  0  0  0
   13.3471   -1.5931   25.3554 C   0  0  0  0  0  0  0  0  0  0  0  0
   12.8038   -0.8326   24.1821 C   0  0  0  0  0  0  0  0  0  0  0  0
   11.4699   -1.2001   23.6027 C   0  0  0  0  0  0  0  0  0  0  0  0
   10.6794   -2.3281   24.1965 C   0  0  0  0  0  0  0  0  0  0  0  0
  1  2  2  0  0  0
  2 13  1  0  0  0
 13 14  1  0  0  0
 14 15  2  0  0  0
 15 16  1  0  0  0
 16 17  2  0  0  0
 17 18  1  0  0  0
 18 19  2  0  0  0
 19 20  1  0  0  0
 20 21  2  0  0  0
 21 22  1  0  0  0
 22 23  2  0  0  0
  2  3  1  0  0  0
  3  4  1  0  0  0
  4  5  1  0  0  0
  5  6  1  0  0  0
  6  9  1  0  0  0
  9 10  1  0  0  0
  9 11  1  0  0  0
  9 12  1  0  0  0
  6  7  1  0  0  0
  7  8  1  0  0  0
 23 14  1  0  0  0
  8  3  1  0  0  0
 23 18  1  0  0  0
M  END
> <minimizedAffinity>
-6.97349

> <CNNscore>
0.3489562571

> <CNNaffinity>
5.3925132751

> <CNN_VS>
1.8817512989

> <CNNaffinity_variance>
0.2336899042

$$$$



 23 25  0  0  0  0  0  0  0  0999 V2000
    9.7756    1.5638   23.5258 O   0  0  0  0  0  0  0  0  0  0  0  0
    9.3278    0.5410   22.5240 C   0  0  0  0  0  0  0  0  0  0  0  0
    8.0873    0.7773   21.7144 N   0  0  0  0  0  0  0  0  0  0  0  0
    7.6394   -0.2454   20.7127 C   0  0  0  0  0  0  0  0  0  0  0  0
    6.3990   -0.0092   19.9031 C   0  0  0  0  0  0  0  0  0  0  0  0
    5.6064    1.2497   20.0952 C   0  0  0  0  0  0  0  0  0  0  0  0
    6.0543    2.2725   21.0970 C   0  0  0  0  0  0  0  0  0  0  0  0
    7.2948    2.0363   21.9066 C   0  0  0  0  0  0  0  0  0  0  0  0
    4.3660    1.4860   19.2856 C   0  0  0  0  0  0  0  0  0  0  0  0
    3.1255    1.7222   18.4759 F   0  0  0  0  0  0  0  0  0  0  0  0
    3.6577    1.9757   20.5137 F   0  0  0  0  0  0  0  0  0  0  0  0
    5.0743    0.9962   18.0574 F   0  0  0  0  0  0  0  0  0  0  0  0
   10.1203   -0.7179   22.3319 C   0  0  0  0  0  0  0  0  0  0  0  0
   11.1281   -1.1342   23.3620 C   0  0  0  0  0  0  0  0  0  0  0  0
   12.4563   -0.4411   23.4349 C   0  0  0  0  0  0  0  0  0  0  0  0
   13.4641   -0.8574   24.4649 N   0  0  0  0  0  0  0  0  0  0  0  0
   13.1437   -1.9670   25.4221 C   0  0  0  0  0  0  0  0  0  0  0  0
   11.8154   -2.6602   25.3492 C   0  0  0  0  0  0  0  0  0  0  0  0
   11.4950   -3.7697   26.3064 C   0  0  0  0  0  0  0  0  0  0  0  0
   10.1668   -4.4629   26.2335 C   0  0  0  0  0  0  0  0  0  0  0  0
    9.1590   -4.0465   25.2035 C   0  0  0  0  0  0  0  0  0  0  0  0
    9.4795   -2.9370   24.2463 C   0  0  0  0  0  0  0  0  0  0  0  0
   10.8077   -2.2438   24.3192 C   0  0  0  0  0  0  0  0  0  0  0  0
  1  2  2  0  0  0
  2 13  1  0  0  0
 13 14  1  0  0  0
 14 15  2  0  0  0
 15 16  1  0  0  0
 16 17  2  0  0  0
 17 18  1  0  0  0
 18 19  2  0  0  0
 19 20  1  0  0  0
 20 21  2  0  0  0
 21 22  1  0  0  0
 22 23  2  0  0  0
  2  3  1  0  0  0
  3  4  1  0  0  0
  4  5  1  0  0  0
  5  6  1  0  0  0
  6  9  1  0  0  0
  9 10  1  0  0  0
  9 11  1  0  0  0
  9 12  1  0  0  0
  6  7  1  0  0  0
  7  8  1  0  0  0
 23 14  1  0  0  0
  8  3  1  0  0  0
 23 18  1  0  0  0
M  END
> <minimizedAffinity>
-7.50855

> <CNNscore>
0.3413918316

> <CNNaffinity>
5.3262376785

> <CNN_VS>
1.8183339834

> <CNNaffinity_variance>
0.0649738312

$$$$
