


 22 25  0  0  0  0  0  0  0  0999 V2000
    8.4753    1.5093   21.1385 O   0  0  0  0  0  0  0  0  0  0  0  0
    8.0700    0.1523   21.6330 C   0  0  0  0  0  0  0  0  0  0  0  0
    8.9865   -0.6226   22.5327 N   0  0  0  0  0  0  0  0  0  0  0  0
    8.5812   -1.9795   23.0272 C   0  0  0  0  0  0  0  0  0  0  0  0
    9.4977   -2.7545   23.9268 C   0  0  0  0  0  0  0  0  0  0  0  0
   10.8195   -2.1725   24.3320 C   0  0  0  0  0  0  0  0  0  0  0  0
   11.9233   -2.6978   25.2013 S   0  0  0  0  0  0  0  0  0  0  0  0
   13.0108   -1.6655   25.2441 C   0  0  0  0  0  0  0  0  0  0  0  0
   12.5791   -0.5023   24.4012 C   0  0  0  0  0  0  0  0  0  0  0  0
   11.2248   -0.8156   23.8375 C   0  0  0  0  0  0  0  0  0  0  0  0
   10.3083   -0.0406   22.9378 C   0  0  0  0  0  0  0  0  0  0  0  0
    6.7482   -0.4296   21.2278 C   0  0  0  0  0  0  0  0  0  0  0  0
    6.0129    0.1300   20.0462 C   0  0  0  0  0  0  0  0  0  0  0  0
    6.5501   -0.0783   18.6612 C   0  0  0  0  0  0  0  0  0  0  0  0
    5.8148    0.4813   17.4796 N   0  0  0  0  0  0  0  0  0  0  0  0
    4.5424    1.2491   17.6829 C   0  0  0  0  0  0  0  0  0  0  0  0
    4.0052    1.4574   19.0679 C   0  0  0  0  0  0  0  0  0  0  0  0
    2.7328    2.2253   19.2712 C   0  0  0  0  0  0  0  0  0  0  0  0
    2.1957    2.4335   20.6561 C   0  0  0  0  0  0  0  0  0  0  0  0
    2.9309    1.8739   21.8377 C   0  0  0  0  0  0  0  0  0  0  0  0
    4.2033    1.1061   21.6344 C   0  0  0  0  0  0  0  0  0  0  0  0
    4.7405    0.8979   20.2495 C   0  0  0  0  0  0  0  0  0  0  0  0
  1  2  2  0  0  0
  2 12  1  0  0  0
 12 13  1  0  0  0
 13 14  2  0  0  0
 14 15  1  0  0  0
 15 16  2  0  0  0
 16 17  1  0  0  0
 17 18  2  0  0  0
 18 19  1  0  0  0
 19 20  2  0  0  0
 20 21  1  0  0  0
 21 22  2  0  0  0
  2  3  1  0  0  0
  3  4  1  0  0  0
  4  5  1  0  0  0
  5  6  1  0  0  0
  6  7  1  0  0  0
  7  8  1  0  0  0
  8  9  2  0  0  0
  9 10  1  0  0  0
 10 11  1  0  0  0
 22 13  1  0  0  0
 11  3  1  0  0  0
 22 17  1  0  0  0
 10  6  2  0  0  0
M  END
> <minimizedAffinity>
-7.57615

> <CNNscore>
0.7802734375

> <CNNaffinity>
5.5128965378

> <CNN_VS>
4.3015666008

> <CNNaffinity_variance>
0.0531816408

$$$$



 22 25  0  0  0  0  0  0  0  0999 V2000
    6.9530   -1.6738   22.4615 O   0  0  0  0  0  0  0  0  0  0  0  0
    8.0286   -0.6312   22.3818 C   0  0  0  0  0  0  0  0  0  0  0  0
    9.2997   -0.8041   23.1592 N   0  0  0  0  0  0  0  0  0  0  0  0
   10.3752    0.2384   23.0795 C   0  0  0  0  0  0  0  0  0  0  0  0
   11.6464    0.0656   23.8569 C   0  0  0  0  0  0  0  0  0  0  0  0
   11.8420   -1.1497   24.7140 C   0  0  0  0  0  0  0  0  0  0  0  0
   12.9797   -1.5899   25.5869 S   0  0  0  0  0  0  0  0  0  0  0  0
   12.6073   -2.9044   26.2060 C   0  0  0  0  0  0  0  0  0  0  0  0
   11.2394   -3.2767   25.7158 C   0  0  0  0  0  0  0  0  0  0  0  0
   10.7664   -2.1923   24.7937 C   0  0  0  0  0  0  0  0  0  0  0  0
    9.4953   -2.0195   24.0163 C   0  0  0  0  0  0  0  0  0  0  0  0
    7.8330    0.5841   21.5247 C   0  0  0  0  0  0  0  0  0  0  0  0
    6.8788    0.5406   20.3682 C   0  0  0  0  0  0  0  0  0  0  0  0
    7.1197   -0.4090   19.2324 C   0  0  0  0  0  0  0  0  0  0  0  0
    6.1655   -0.4525   18.0759 N   0  0  0  0  0  0  0  0  0  0  0  0
    4.9704    0.4536   18.0551 C   0  0  0  0  0  0  0  0  0  0  0  0
    4.7294    1.4033   19.1909 C   0  0  0  0  0  0  0  0  0  0  0  0
    3.5342    2.3094   19.1702 C   0  0  0  0  0  0  0  0  0  0  0  0
    3.2933    3.2591   20.3059 C   0  0  0  0  0  0  0  0  0  0  0  0
    4.2475    3.3026   21.4625 C   0  0  0  0  0  0  0  0  0  0  0  0
    5.4426    2.3965   21.4832 C   0  0  0  0  0  0  0  0  0  0  0  0
    5.6836    1.4468   20.3475 C   0  0  0  0  0  0  0  0  0  0  0  0
  1  2  2  0  0  0
  2 12  1  0  0  0
 12 13  1  0  0  0
 13 14  2  0  0  0
 14 15  1  0  0  0
 15 16  2  0  0  0
 16 17  1  0  0  0
 17 18  2  0  0  0
 18 19  1  0  0  0
 19 20  2  0  0  0
 20 21  1  0  0  0
 21 22  2  0  0  0
  2  3  1  0  0  0
  3  4  1  0  0  0
  4  5  1  0  0  0
  5  6  1  0  0  0
  6  7  1  0  0  0
  7  8  1  0  0  0
  8  9  2  0  0  0
  9 10  1  0  0  0
 10 11  1  0  0  0
 22 13  1  0  0  0
 11  3  1  0  0  0
 22 17  1  0  0  0
 10  6  2  0  0  0
M  END
> <minimizedAffinity>
-7.61618

> <CNNscore>
0.5507053733

> <CNNaffinity>
5.3310308456

> <CNN_VS>
2.9358272552

> <CNNaffinity_variance>
0.1315835565

$$$$



 22 25  0  0  0  0  0  0  0  0999 V2000
    6.5388   -3.0478   22.2763 O   0  0  0  0  0  0  0  0  0  0  0  0
    6.6463   -1.5518   22.2535 C   0  0  0  0  0  0  0  0  0  0  0  0
    7.9726   -0.8914   22.4878 N   0  0  0  0  0  0  0  0  0  0  0  0
    8.0801    0.6045   22.4650 C   0  0  0  0  0  0  0  0  0  0  0  0
    9.4064    1.2648   22.6993 C   0  0  0  0  0  0  0  0  0  0  0  0
   10.6252    0.4292   22.9563 C   0  0  0  0  0  0  0  0  0  0  0  0
   12.0559    0.7952   23.2191 S   0  0  0  0  0  0  0  0  0  0  0  0
   12.8327   -0.4746   23.4042 C   0  0  0  0  0  0  0  0  0  0  0  0
   11.8821   -1.6254   23.2559 C   0  0  0  0  0  0  0  0  0  0  0  0
   10.5178   -1.0668   22.9791 C   0  0  0  0  0  0  0  0  0  0  0  0
    9.1915   -1.7271   22.7449 C   0  0  0  0  0  0  0  0  0  0  0  0
    5.4274   -0.7161   21.9965 C   0  0  0  0  0  0  0  0  0  0  0  0
    5.1822   -0.1479   20.6301 C   0  0  0  0  0  0  0  0  0  0  0  0
    5.9609   -0.6590   19.4544 C   0  0  0  0  0  0  0  0  0  0  0  0
    5.7156   -0.0907   18.0880 N   0  0  0  0  0  0  0  0  0  0  0  0
    4.6917    0.9887   17.8974 C   0  0  0  0  0  0  0  0  0  0  0  0
    3.9130    1.4999   19.0732 C   0  0  0  0  0  0  0  0  0  0  0  0
    2.8891    2.5794   18.8825 C   0  0  0  0  0  0  0  0  0  0  0  0
    2.1104    3.0905   20.0582 C   0  0  0  0  0  0  0  0  0  0  0  0
    2.3557    2.5223   21.4246 C   0  0  0  0  0  0  0  0  0  0  0  0
    3.3796    1.4428   21.6152 C   0  0  0  0  0  0  0  0  0  0  0  0
    4.1582    0.9316   20.4395 C   0  0  0  0  0  0  0  0  0  0  0  0
  1  2  2  0  0  0
  2 12  1  0  0  0
 12 13  1  0  0  0
 13 14  2  0  0  0
 14 15  1  0  0  0
 15 16  2  0  0  0
 16 17  1  0  0  0
 17 18  2  0  0  0
 18 19  1  0  0  0
 19 20  2  0  0  0
 20 21  1  0  0  0
 21 22  2  0  0  0
  2  3  1  0  0  0
  3  4  1  0  0  0
  4  5  1  0  0  0
  5  6  1  0  0  0
  6  7  1  0  0  0
  7  8  1  0  0  0
  8  9  2  0  0  0
  9 10  1  0  0  0
 10 11  1  0  0  0
 22 13  1  0  0  0
 11  3  1  0  0  0
 22 17  1  0  0  0
 10  6  2  0  0  0
M  END
> <minimizedAffinity>
-7.00838

> <CNNscore>
0.5030354261

> <CNNaffinity>
5.3392062187

> <CNN_VS>
2.6858098507

> <CNNaffinity_variance>
0.1422514021

$$$$



 22 25  0  0  0  0  0  0  0  0999 V2000
    8.3966    0.5439   23.7799 O   0  0  0  0  0  0  0  0  0  0  0  0
    8.4877   -0.1583   22.4575 C   0  0  0  0  0  0  0  0  0  0  0  0
    7.4941    0.1472   21.3762 N   0  0  0  0  0  0  0  0  0  0  0  0
    7.5851   -0.5549   20.0538 C   0  0  0  0  0  0  0  0  0  0  0  0
    6.5914   -0.2494   18.9724 C   0  0  0  0  0  0  0  0  0  0  0  0
    5.5068    0.7582   19.2135 C   0  0  0  0  0  0  0  0  0  0  0  0
    4.3937    1.2623   18.3434 S   0  0  0  0  0  0  0  0  0  0  0  0
    3.6147    2.2760   19.1281 C   0  0  0  0  0  0  0  0  0  0  0  0
    4.2463    2.3984   20.4831 C   0  0  0  0  0  0  0  0  0  0  0  0
    5.4157    1.4604   20.5359 C   0  0  0  0  0  0  0  0  0  0  0  0
    6.4093    1.1549   21.6172 C   0  0  0  0  0  0  0  0  0  0  0  0
    9.5724   -1.1659   22.2165 C   0  0  0  0  0  0  0  0  0  0  0  0
   10.7466   -1.2410   23.1469 C   0  0  0  0  0  0  0  0  0  0  0  0
   11.9053   -0.3052   22.9692 C   0  0  0  0  0  0  0  0  0  0  0  0
   13.0795   -0.3803   23.8996 N   0  0  0  0  0  0  0  0  0  0  0  0
   13.0949   -1.3911   25.0078 C   0  0  0  0  0  0  0  0  0  0  0  0
   11.9361   -2.3269   25.1855 C   0  0  0  0  0  0  0  0  0  0  0  0
   11.9515   -3.3376   26.2937 C   0  0  0  0  0  0  0  0  0  0  0  0
   10.7927   -4.2734   26.4714 C   0  0  0  0  0  0  0  0  0  0  0  0
    9.6186   -4.1983   25.5410 C   0  0  0  0  0  0  0  0  0  0  0  0
    9.6032   -3.1875   24.4328 C   0  0  0  0  0  0  0  0  0  0  0  0
   10.7619   -2.2518   24.2551 C   0  0  0  0  0  0  0  0  0  0  0  0
  1  2  2  0  0  0
  2 12  1  0  0  0
 12 13  1  0  0  0
 13 14  2  0  0  0
 14 15  1  0  0  0
 15 16  2  0  0  0
 16 17  1  0  0  0
 17 18  2  0  0  0
 18 19  1  0  0  0
 19 20  2  0  0  0
 20 21  1  0  0  0
 21 22  2  0  0  0
  2  3  1  0  0  0
  3  4  1  0  0  0
  4  5  1  0  0  0
  5  6  1  0  0  0
  6  7  1  0  0  0
  7  8  1  0  0  0
  8  9  2  0  0  0
  9 10  1  0  0  0
 10 11  1  0  0  0
 22 13  1  0  0  0
 11  3  1  0  0  0
 22 17  1  0  0  0
 10  6  2  0  0  0
M  END
> <minimizedAffinity>
-7.87011

> <CNNscore>
0.4833885133

> <CNNaffinity>
5.2553963661

> <CNN_VS>
2.5403981209

> <CNNaffinity_variance>
0.1664205194

$$$$



 22 25  0  0  0  0  0  0  0  0999 V2000
    8.5027    0.2702   23.0647 O   0  0  0  0  0  0  0  0  0  0  0  0
    9.9240    0.6871   22.8272 C   0  0  0  0  0  0  0  0  0  0  0  0
   10.2864    2.1426   22.8142 N   0  0  0  0  0  0  0  0  0  0  0  0
   11.7075    2.5595   22.5767 C   0  0  0  0  0  0  0  0  0  0  0  0
   12.0700    4.0150   22.5638 C   0  0  0  0  0  0  0  0  0  0  0  0
   11.0113    5.0536   22.7884 C   0  0  0  0  0  0  0  0  0  0  0  0
   11.0681    6.5519   22.8313 S   0  0  0  0  0  0  0  0  0  0  0  0
    9.6820    7.0610   23.0953 C   0  0  0  0  0  0  0  0  0  0  0  0
    8.7685    5.8773   23.2156 C   0  0  0  0  0  0  0  0  0  0  0  0
    9.5900    4.6367   23.0260 C   0  0  0  0  0  0  0  0  0  0  0  0
    9.2276    3.1812   23.0389 C   0  0  0  0  0  0  0  0  0  0  0  0
   10.9827   -0.3515   22.6026 C   0  0  0  0  0  0  0  0  0  0  0  0
   11.5485   -1.1096   23.7666 C   0  0  0  0  0  0  0  0  0  0  0  0
   12.8846   -0.7284   24.3319 C   0  0  0  0  0  0  0  0  0  0  0  0
   13.4504   -1.4866   25.4959 N   0  0  0  0  0  0  0  0  0  0  0  0
   12.6802   -2.6259   26.0947 C   0  0  0  0  0  0  0  0  0  0  0  0
   11.3441   -3.0072   25.5294 C   0  0  0  0  0  0  0  0  0  0  0  0
   10.5739   -4.1466   26.1282 C   0  0  0  0  0  0  0  0  0  0  0  0
    9.2378   -4.5278   25.5629 C   0  0  0  0  0  0  0  0  0  0  0  0
    8.6720   -3.7696   24.3989 C   0  0  0  0  0  0  0  0  0  0  0  0
    9.4422   -2.6303   23.8001 C   0  0  0  0  0  0  0  0  0  0  0  0
   10.7782   -2.2491   24.3654 C   0  0  0  0  0  0  0  0  0  0  0  0
  1  2  2  0  0  0
  2 12  1  0  0  0
 12 13  1  0  0  0
 13 14  2  0  0  0
 14 15  1  0  0  0
 15 16  2  0  0  0
 16 17  1  0  0  0
 17 18  2  0  0  0
 18 19  1  0  0  0
 19 20  2  0  0  0
 20 21  1  0  0  0
 21 22  2  0  0  0
  2  3  1  0  0  0
  3  4  1  0  0  0
  4  5  1  0  0  0
  5  6  1  0  0  0
  6  7  1  0  0  0
  7  8  1  0  0  0
  8  9  2  0  0  0
  9 10  1  0  0  0
 10 11  1  0  0  0
 22 13  1  0  0  0
 11  3  1  0  0  0
 22 17  1  0  0  0
 10  6  2  0  0  0
M  END
> <minimizedAffinity>
-7.00809

> <CNNscore>
0.4804744422

> <CNNaffinity>
5.4825115204

> <CNN_VS>
2.6342067719

> <CNNaffinity_variance>
0.1095416397

$$$$



 22 25  0  0  0  0  0  0  0  0999 V2000
    8.9984   -4.5505   24.4886 O   0  0  0  0  0  0  0  0  0  0  0  0
    8.3381   -3.7462   25.5690 C   0  0  0  0  0  0  0  0  0  0  0  0
    6.8776   -3.9322   25.8561 N   0  0  0  0  0  0  0  0  0  0  0  0
    6.2172   -3.1280   26.9364 C   0  0  0  0  0  0  0  0  0  0  0  0
    4.7568   -3.3140   27.2235 C   0  0  0  0  0  0  0  0  0  0  0  0
    3.9567   -4.3042   26.4304 C   0  0  0  0  0  0  0  0  0  0  0  0
    2.5114   -4.7016   26.4863 S   0  0  0  0  0  0  0  0  0  0  0  0
    2.2784   -5.7515   25.4405 C   0  0  0  0  0  0  0  0  0  0  0  0
    3.5798   -6.0030   24.7383 C   0  0  0  0  0  0  0  0  0  0  0  0
    4.6170   -5.1086   25.3500 C   0  0  0  0  0  0  0  0  0  0  0  0
    6.0775   -4.9225   25.0629 C   0  0  0  0  0  0  0  0  0  0  0  0
    9.1382   -2.7560   26.3622 C   0  0  0  0  0  0  0  0  0  0  0  0
   10.5698   -2.4887   26.0028 C   0  0  0  0  0  0  0  0  0  0  0  0
   11.6619   -3.3251   26.6008 C   0  0  0  0  0  0  0  0  0  0  0  0
   13.0934   -3.0579   26.2414 N   0  0  0  0  0  0  0  0  0  0  0  0
   13.4329   -1.9542   25.2840 C   0  0  0  0  0  0  0  0  0  0  0  0
   12.3408   -1.1177   24.6859 C   0  0  0  0  0  0  0  0  0  0  0  0
   12.6802   -0.0140   23.7285 C   0  0  0  0  0  0  0  0  0  0  0  0
   11.5881    0.8224   23.1306 C   0  0  0  0  0  0  0  0  0  0  0  0
   10.1565    0.5551   23.4899 C   0  0  0  0  0  0  0  0  0  0  0  0
    9.8171   -0.5485   24.4473 C   0  0  0  0  0  0  0  0  0  0  0  0
   10.9092   -1.3850   25.0453 C   0  0  0  0  0  0  0  0  0  0  0  0
  1  2  2  0  0  0
  2 12  1  0  0  0
 12 13  1  0  0  0
 13 14  2  0  0  0
 14 15  1  0  0  0
 15 16  2  0  0  0
 16 17  1  0  0  0
 17 18  2  0  0  0
 18 19  1  0  0  0
 19 20  2  0  0  0
 20 21  1  0  0  0
 21 22  2  0  0  0
  2  3  1  0  0  0
  3  4  1  0  0  0
  4  5  1  0  0  0
  5  6  1  0  0  0
  6  7  1  0  0  0
  7  8  1  0  0  0
  8  9  2  0  0  0
  9 10  1  0  0  0
 10 11  1  0  0  0
 22 13  1  0  0  0
 11  3  1  0  0  0
 22 17  1  0  0  0
 10  6  2  0  0  0
M  END
> <minimizedAffinity>
-6.57022

> <CNNscore>
0.4795817435

> <CNNaffinity>
5.4570527077

> <CNN_VS>
2.6171028614

> <CNNaffinity_variance>
0.3589818478

$$$$



 22 25  0  0  0  0  0  0  0  0999 V2000
    6.9880   -0.7165   24.1079 O   0  0  0  0  0  0  0  0  0  0  0  0
    7.5235   -0.9416   22.7249 C   0  0  0  0  0  0  0  0  0  0  0  0
    6.7935   -0.3854   21.5383 N   0  0  0  0  0  0  0  0  0  0  0  0
    7.3288   -0.6104   20.1554 C   0  0  0  0  0  0  0  0  0  0  0  0
    6.5989   -0.0543   18.9688 C   0  0  0  0  0  0  0  0  0  0  0  0
    5.3335    0.7268   19.1653 C   0  0  0  0  0  0  0  0  0  0  0  0
    4.4033    1.3916   18.1943 S   0  0  0  0  0  0  0  0  0  0  0  0
    3.2930    2.0275   18.9772 C   0  0  0  0  0  0  0  0  0  0  0  0
    3.5370    1.7557   20.4321 C   0  0  0  0  0  0  0  0  0  0  0  0
    4.7981    0.9519   20.5483 C   0  0  0  0  0  0  0  0  0  0  0  0
    5.5281    0.3958   21.7349 C   0  0  0  0  0  0  0  0  0  0  0  0
    8.7888   -1.7227   22.5284 C   0  0  0  0  0  0  0  0  0  0  0  0
    9.3100   -2.5960   23.6310 C   0  0  0  0  0  0  0  0  0  0  0  0
    8.5120   -3.7800   24.0907 C   0  0  0  0  0  0  0  0  0  0  0  0
    9.0331   -4.6533   25.1933 N   0  0  0  0  0  0  0  0  0  0  0  0
   10.3523   -4.3426   25.8362 C   0  0  0  0  0  0  0  0  0  0  0  0
   11.1503   -3.1586   25.3765 C   0  0  0  0  0  0  0  0  0  0  0  0
   12.4695   -2.8480   26.0193 C   0  0  0  0  0  0  0  0  0  0  0  0
   13.2675   -1.6640   25.5596 C   0  0  0  0  0  0  0  0  0  0  0  0
   12.7463   -0.7907   24.4570 C   0  0  0  0  0  0  0  0  0  0  0  0
   11.4272   -1.1013   23.8141 C   0  0  0  0  0  0  0  0  0  0  0  0
   10.6292   -2.2853   24.2739 C   0  0  0  0  0  0  0  0  0  0  0  0
  1  2  2  0  0  0
  2 12  1  0  0  0
 12 13  1  0  0  0
 13 14  2  0  0  0
 14 15  1  0  0  0
 15 16  2  0  0  0
 16 17  1  0  0  0
 17 18  2  0  0  0
 18 19  1  0  0  0
 19 20  2  0  0  0
 20 21  1  0  0  0
 21 22  2  0  0  0
  2  3  1  0  0  0
  3  4  1  0  0  0
  4  5  1  0  0  0
  5  6  1  0  0  0
  6  7  1  0  0  0
  7  8  1  0  0  0
  8  9  2  0  0  0
  9 10  1  0  0  0
 10 11  1  0  0  0
 22 13  1  0  0  0
 11  3  1  0  0  0
 22 17  1  0  0  0
 10  6  2  0  0  0
M  END
> <minimizedAffinity>
-7.74930

> <CNNscore>
0.4789940119

> <CNNaffinity>
5.2823224068

> <CNN_VS>
2.5302007198

> <CNNaffinity_variance>
0.1346242726

$$$$



 22 25  0  0  0  0  0  0  0  0999 V2000
    7.6961    0.3327   23.0451 O   0  0  0  0  0  0  0  0  0  0  0  0
    9.1730    0.5267   22.8678 C   0  0  0  0  0  0  0  0  0  0  0  0
    9.7521    1.9104   22.8609 N   0  0  0  0  0  0  0  0  0  0  0  0
   11.2289    2.1045   22.6835 C   0  0  0  0  0  0  0  0  0  0  0  0
   11.8080    3.4881   22.6766 C   0  0  0  0  0  0  0  0  0  0  0  0
   10.9104    4.6777   22.8470 C   0  0  0  0  0  0  0  0  0  0  0  0
   11.1918    6.1507   22.8819 S   0  0  0  0  0  0  0  0  0  0  0  0
    9.8890    6.8670   23.0809 C   0  0  0  0  0  0  0  0  0  0  0  0
    8.8023    5.8367   23.1688 C   0  0  0  0  0  0  0  0  0  0  0  0
    9.4335    4.4837   23.0243 C   0  0  0  0  0  0  0  0  0  0  0  0
    8.8544    3.1000   23.0312 C   0  0  0  0  0  0  0  0  0  0  0  0
   10.0706   -0.6629   22.6974 C   0  0  0  0  0  0  0  0  0  0  0  0
    9.9476   -1.8344   23.6261 C   0  0  0  0  0  0  0  0  0  0  0  0
    8.7125   -2.6852   23.6007 C   0  0  0  0  0  0  0  0  0  0  0  0
    8.5895   -3.8567   24.5293 N   0  0  0  0  0  0  0  0  0  0  0  0
    9.7016   -4.1774   25.4835 C   0  0  0  0  0  0  0  0  0  0  0  0
   10.9367   -3.3266   25.5090 C   0  0  0  0  0  0  0  0  0  0  0  0
   12.0488   -3.6473   26.4631 C   0  0  0  0  0  0  0  0  0  0  0  0
   13.2838   -2.7965   26.4886 C   0  0  0  0  0  0  0  0  0  0  0  0
   13.4069   -1.6250   25.5599 C   0  0  0  0  0  0  0  0  0  0  0  0
   12.2948   -1.3043   24.6057 C   0  0  0  0  0  0  0  0  0  0  0  0
   11.0597   -2.1551   24.5803 C   0  0  0  0  0  0  0  0  0  0  0  0
  1  2  2  0  0  0
  2 12  1  0  0  0
 12 13  1  0  0  0
 13 14  2  0  0  0
 14 15  1  0  0  0
 15 16  2  0  0  0
 16 17  1  0  0  0
 17 18  2  0  0  0
 18 19  1  0  0  0
 19 20  2  0  0  0
 20 21  1  0  0  0
 21 22  2  0  0  0
  2  3  1  0  0  0
  3  4  1  0  0  0
  4  5  1  0  0  0
  5  6  1  0  0  0
  6  7  1  0  0  0
  7  8  1  0  0  0
  8  9  2  0  0  0
  9 10  1  0  0  0
 10 11  1  0  0  0
 22 13  1  0  0  0
 11  3  1  0  0  0
 22 17  1  0  0  0
 10  6  2  0  0  0
M  END
> <minimizedAffinity>
-7.01389

> <CNNscore>
0.4769186080

> <CNNaffinity>
5.4122695923

> <CNN_VS>
2.5812120438

> <CNNaffinity_variance>
0.0884802192

$$$$



 22 25  0  0  0  0  0  0  0  0999 V2000
    6.4173   -2.9782   24.0976 O   0  0  0  0  0  0  0  0  0  0  0  0
    7.3190   -2.2758   23.1261 C   0  0  0  0  0  0  0  0  0  0  0  0
    8.7851   -2.1522   23.4183 N   0  0  0  0  0  0  0  0  0  0  0  0
    9.6868   -1.4499   22.4469 C   0  0  0  0  0  0  0  0  0  0  0  0
   11.1529   -1.3263   22.7390 C   0  0  0  0  0  0  0  0  0  0  0  0
   11.7172   -1.9050   24.0025 C   0  0  0  0  0  0  0  0  0  0  0  0
   13.1107   -1.9379   24.5566 S   0  0  0  0  0  0  0  0  0  0  0  0
   13.0703   -2.6606   25.8705 C   0  0  0  0  0  0  0  0  0  0  0  0
   11.6518   -3.0743   26.1284 C   0  0  0  0  0  0  0  0  0  0  0  0
   10.8155   -2.6074   24.9740 C   0  0  0  0  0  0  0  0  0  0  0  0
    9.3494   -2.7310   24.6819 C   0  0  0  0  0  0  0  0  0  0  0  0
    6.7546   -1.6971   21.8626 C   0  0  0  0  0  0  0  0  0  0  0  0
    5.6887   -0.6439   21.9307 C   0  0  0  0  0  0  0  0  0  0  0  0
    5.0913   -0.2659   23.2536 C   0  0  0  0  0  0  0  0  0  0  0  0
    4.0254    0.7873   23.3217 N   0  0  0  0  0  0  0  0  0  0  0  0
    3.5569    1.4625   22.0669 C   0  0  0  0  0  0  0  0  0  0  0  0
    4.1544    1.0845   20.7439 C   0  0  0  0  0  0  0  0  0  0  0  0
    3.6859    1.7597   19.4891 C   0  0  0  0  0  0  0  0  0  0  0  0
    4.2833    1.3816   18.1662 C   0  0  0  0  0  0  0  0  0  0  0  0
    5.3492    0.3284   18.0981 C   0  0  0  0  0  0  0  0  0  0  0  0
    5.8177   -0.3467   19.3529 C   0  0  0  0  0  0  0  0  0  0  0  0
    5.2203    0.0313   20.6758 C   0  0  0  0  0  0  0  0  0  0  0  0
  1  2  2  0  0  0
  2 12  1  0  0  0
 12 13  1  0  0  0
 13 14  2  0  0  0
 14 15  1  0  0  0
 15 16  2  0  0  0
 16 17  1  0  0  0
 17 18  2  0  0  0
 18 19  1  0  0  0
 19 20  2  0  0  0
 20 21  1  0  0  0
 21 22  2  0  0  0
  2  3  1  0  0  0
  3  4  1  0  0  0
  4  5  1  0  0  0
  5  6  1  0  0  0
  6  7  1  0  0  0
  7  8  1  0  0  0
  8  9  2  0  0  0
  9 10  1  0  0  0
 10 11  1  0  0  0
 22 13  1  0  0  0
 11  3  1  0  0  0
 22 17  1  0  0  0
 10  6  2  0  0  0
M  END
> <minimizedAffinity>
-7.03660

> <CNNscore>
0.4440312982

> <CNNaffinity>
5.2395005226

> <CNN_VS>
2.3265023232

> <CNNaffinity_variance>
0.3025781512

$$$$
