


 22 25  0  0  0  0  0  0  0  0999 V2000
   -7.7995   -1.3456  -22.2377 O   0  0  0  0  0  0  0  0  0  0  0  0
   -7.0322   -2.6345  -22.2414 C   0  0  0  0  0  0  0  0  0  0  0  0
   -7.4736   -3.7675  -23.1198 N   0  0  0  0  0  0  0  0  0  0  0  0
   -6.7064   -5.0564  -23.1236 C   0  0  0  0  0  0  0  0  0  0  0  0
   -7.1478   -6.1894  -24.0019 C   0  0  0  0  0  0  0  0  0  0  0  0
   -8.3564   -6.0335  -24.8764 C   0  0  0  0  0  0  0  0  0  0  0  0
   -9.0254   -6.9683  -25.8400 S   0  0  0  0  0  0  0  0  0  0  0  0
  -10.2061   -6.2572  -26.4318 C   0  0  0  0  0  0  0  0  0  0  0  0
  -10.2669   -4.8829  -25.8339 C   0  0  0  0  0  0  0  0  0  0  0  0
   -9.1238   -4.7446  -24.8726 C   0  0  0  0  0  0  0  0  0  0  0  0
   -8.6824   -3.6116  -23.9943 C   0  0  0  0  0  0  0  0  0  0  0  0
   -5.8235   -2.7903  -21.3670 C   0  0  0  0  0  0  0  0  0  0  0  0
   -5.5120   -1.7556  -20.3267 C   0  0  0  0  0  0  0  0  0  0  0  0
   -5.9679   -1.9539  -18.9115 C   0  0  0  0  0  0  0  0  0  0  0  0
   -5.6563   -0.9191  -17.8712 N   0  0  0  0  0  0  0  0  0  0  0  0
   -4.8889    0.3139  -18.2461 C   0  0  0  0  0  0  0  0  0  0  0  0
   -4.4329    0.5123  -19.6613 C   0  0  0  0  0  0  0  0  0  0  0  0
   -3.6655    1.7453  -20.0362 C   0  0  0  0  0  0  0  0  0  0  0  0
   -3.2096    1.9436  -21.4514 C   0  0  0  0  0  0  0  0  0  0  0  0
   -3.5211    0.9088  -22.4917 C   0  0  0  0  0  0  0  0  0  0  0  0
   -4.2886   -0.3242  -22.1168 C   0  0  0  0  0  0  0  0  0  0  0  0
   -4.7445   -0.5225  -20.7016 C   0  0  0  0  0  0  0  0  0  0  0  0
  1  2  2  0  0  0
  2 12  1  0  0  0
 12 13  1  0  0  0
 13 14  2  0  0  0
 14 15  1  0  0  0
 15 16  2  0  0  0
 16 17  1  0  0  0
 17 18  2  0  0  0
 18 19  1  0  0  0
 19 20  2  0  0  0
 20 21  1  0  0  0
 21 22  2  0  0  0
  2  3  1  0  0  0
  3  4  1  0  0  0
  4  5  1  0  0  0
  5  6  1  0  0  0
  6  7  1  0  0  0
  7  8  1  0  0  0
  8  9  2  0  0  0
  9 10  1  0  0  0
 10 11  1  0  0  0
 22 13  1  0  0  0
 11  3  1  0  0  0
 22 17  1  0  0  0
 10  6  2  0  0  0
M  END
> <minimizedAffinity>
-7.48690

> <CNNscore>
0.6871386766

> <CNNaffinity>
5.0781850815

> <CNN_VS>
3.4894173145

> <CNNaffinity_variance>
0.3310394585

$$$$



 22 25  0  0  0  0  0  0  0  0999 V2000
   -5.7143   -3.6025  -21.3841 O   0  0  0  0  0  0  0  0  0  0  0  0
   -6.7215   -2.7823  -22.1344 C   0  0  0  0  0  0  0  0  0  0  0  0
   -7.5837   -3.4257  -23.1797 N   0  0  0  0  0  0  0  0  0  0  0  0
   -8.5909   -2.6055  -23.9299 C   0  0  0  0  0  0  0  0  0  0  0  0
   -9.4531   -3.2488  -24.9752 C   0  0  0  0  0  0  0  0  0  0  0  0
   -9.3082   -4.7123  -25.2703 C   0  0  0  0  0  0  0  0  0  0  0  0
  -10.0132   -5.6158  -26.2382 S   0  0  0  0  0  0  0  0  0  0  0  0
   -9.4417   -6.9943  -26.0861 C   0  0  0  0  0  0  0  0  0  0  0  0
   -8.3835   -6.9429  -25.0243 C   0  0  0  0  0  0  0  0  0  0  0  0
   -8.3009   -5.5326  -24.5201 C   0  0  0  0  0  0  0  0  0  0  0  0
   -7.4387   -4.8892  -23.4748 C   0  0  0  0  0  0  0  0  0  0  0  0
   -6.8665   -1.3188  -21.8392 C   0  0  0  0  0  0  0  0  0  0  0  0
   -6.2606   -0.7411  -20.5946 C   0  0  0  0  0  0  0  0  0  0  0  0
   -6.9073   -0.9840  -19.2632 C   0  0  0  0  0  0  0  0  0  0  0  0
   -6.3015   -0.4063  -18.0185 N   0  0  0  0  0  0  0  0  0  0  0  0
   -5.0489    0.4144  -18.1053 C   0  0  0  0  0  0  0  0  0  0  0  0
   -4.4022    0.6574  -19.4368 C   0  0  0  0  0  0  0  0  0  0  0  0
   -3.1496    1.4780  -19.5235 C   0  0  0  0  0  0  0  0  0  0  0  0
   -2.5029    1.7209  -20.8549 C   0  0  0  0  0  0  0  0  0  0  0  0
   -3.1088    1.1432  -22.0996 C   0  0  0  0  0  0  0  0  0  0  0  0
   -4.3613    0.3225  -22.0128 C   0  0  0  0  0  0  0  0  0  0  0  0
   -5.0080    0.0796  -20.6814 C   0  0  0  0  0  0  0  0  0  0  0  0
  1  2  2  0  0  0
  2 12  1  0  0  0
 12 13  1  0  0  0
 13 14  2  0  0  0
 14 15  1  0  0  0
 15 16  2  0  0  0
 16 17  1  0  0  0
 17 18  2  0  0  0
 18 19  1  0  0  0
 19 20  2  0  0  0
 20 21  1  0  0  0
 21 22  2  0  0  0
  2  3  1  0  0  0
  3  4  1  0  0  0
  4  5  1  0  0  0
  5  6  1  0  0  0
  6  7  1  0  0  0
  7  8  1  0  0  0
  8  9  2  0  0  0
  9 10  1  0  0  0
 10 11  1  0  0  0
 22 13  1  0  0  0
 11  3  1  0  0  0
 22 17  1  0  0  0
 10  6  2  0  0  0
M  END
> <minimizedAffinity>
-7.19270

> <CNNscore>
0.6058763266

> <CNNaffinity>
5.1207704544

> <CNN_VS>
3.1025536060

> <CNNaffinity_variance>
0.1790620834

$$$$



 22 25  0  0  0  0  0  0  0  0999 V2000
   -8.0829   -3.7641  -22.5866 O   0  0  0  0  0  0  0  0  0  0  0  0
   -7.6984   -2.3166  -22.5016 C   0  0  0  0  0  0  0  0  0  0  0  0
   -8.7351   -1.2520  -22.7062 N   0  0  0  0  0  0  0  0  0  0  0  0
   -8.3506    0.1954  -22.6211 C   0  0  0  0  0  0  0  0  0  0  0  0
   -9.3873    1.2601  -22.8257 C   0  0  0  0  0  0  0  0  0  0  0  0
  -10.8084    0.8774  -23.1154 C   0  0  0  0  0  0  0  0  0  0  0  0
  -12.0391    1.6990  -23.3605 S   0  0  0  0  0  0  0  0  0  0  0  0
  -13.1842    0.7595  -23.5970 C   0  0  0  0  0  0  0  0  0  0  0  0
  -12.6612   -0.6429  -23.4981 C   0  0  0  0  0  0  0  0  0  0  0  0
  -11.1929   -0.5701  -23.2004 C   0  0  0  0  0  0  0  0  0  0  0  0
  -10.1562   -1.6347  -22.9958 C   0  0  0  0  0  0  0  0  0  0  0  0
   -6.2773   -1.9339  -22.2119 C   0  0  0  0  0  0  0  0  0  0  0  0
   -5.9322   -1.2530  -20.9207 C   0  0  0  0  0  0  0  0  0  0  0  0
   -6.7174   -1.5570  -19.6793 C   0  0  0  0  0  0  0  0  0  0  0  0
   -6.3723   -0.8760  -18.3881 N   0  0  0  0  0  0  0  0  0  0  0  0
   -5.2421    0.1088  -18.3382 C   0  0  0  0  0  0  0  0  0  0  0  0
   -4.4568    0.4128  -19.5796 C   0  0  0  0  0  0  0  0  0  0  0  0
   -3.3266    1.3977  -19.5298 C   0  0  0  0  0  0  0  0  0  0  0  0
   -2.5414    1.7016  -20.7712 C   0  0  0  0  0  0  0  0  0  0  0  0
   -2.8865    1.0207  -22.0624 C   0  0  0  0  0  0  0  0  0  0  0  0
   -4.0167    0.0358  -22.1122 C   0  0  0  0  0  0  0  0  0  0  0  0
   -4.8019   -0.2681  -20.8709 C   0  0  0  0  0  0  0  0  0  0  0  0
  1  2  2  0  0  0
  2 12  1  0  0  0
 12 13  1  0  0  0
 13 14  2  0  0  0
 14 15  1  0  0  0
 15 16  2  0  0  0
 16 17  1  0  0  0
 17 18  2  0  0  0
 18 19  1  0  0  0
 19 20  2  0  0  0
 20 21  1  0  0  0
 21 22  2  0  0  0
  2  3  1  0  0  0
  3  4  1  0  0  0
  4  5  1  0  0  0
  5  6  1  0  0  0
  6  7  1  0  0  0
  7  8  1  0  0  0
  8  9  2  0  0  0
  9 10  1  0  0  0
 10 11  1  0  0  0
 22 13  1  0  0  0
 11  3  1  0  0  0
 22 17  1  0  0  0
 10  6  2  0  0  0
M  END
> <minimizedAffinity>
-7.22254

> <CNNscore>
0.4671590328

> <CNNaffinity>
5.0827379227

> <CNN_VS>
2.3744468689

> <CNNaffinity_variance>
0.2382783145

$$$$



 22 25  0  0  0  0  0  0  0  0999 V2000
   -8.2867   -0.5038  -20.9910 O   0  0  0  0  0  0  0  0  0  0  0  0
   -7.3578   -1.6597  -21.2177 C   0  0  0  0  0  0  0  0  0  0  0  0
   -7.6848   -2.6922  -22.2556 N   0  0  0  0  0  0  0  0  0  0  0  0
   -6.7560   -3.8479  -22.4823 C   0  0  0  0  0  0  0  0  0  0  0  0
   -7.0830   -4.8804  -23.5202 C   0  0  0  0  0  0  0  0  0  0  0  0
   -8.3387   -4.7571  -24.3312 C   0  0  0  0  0  0  0  0  0  0  0  0
   -8.9208   -5.6135  -25.4164 S   0  0  0  0  0  0  0  0  0  0  0  0
  -10.2094   -4.9870  -25.8604 C   0  0  0  0  0  0  0  0  0  0  0  0
  -10.4237   -3.7434  -25.0495 C   0  0  0  0  0  0  0  0  0  0  0  0
   -9.2676   -3.6013  -24.1044 C   0  0  0  0  0  0  0  0  0  0  0  0
   -8.9407   -2.5688  -23.0666 C   0  0  0  0  0  0  0  0  0  0  0  0
   -6.1021   -1.7829  -20.4067 C   0  0  0  0  0  0  0  0  0  0  0  0
   -5.1822   -0.6066  -20.2651 C   0  0  0  0  0  0  0  0  0  0  0  0
   -4.9789    0.0290  -18.9218 C   0  0  0  0  0  0  0  0  0  0  0  0
   -4.0590    1.2054  -18.7801 N   0  0  0  0  0  0  0  0  0  0  0  0
   -3.3425    1.7461  -19.9818 C   0  0  0  0  0  0  0  0  0  0  0  0
   -3.5458    1.1105  -21.3253 C   0  0  0  0  0  0  0  0  0  0  0  0
   -2.8292    1.6512  -22.5270 C   0  0  0  0  0  0  0  0  0  0  0  0
   -3.0325    1.0155  -23.8703 C   0  0  0  0  0  0  0  0  0  0  0  0
   -3.9524   -0.1608  -24.0119 C   0  0  0  0  0  0  0  0  0  0  0  0
   -4.6690   -0.7015  -22.8102 C   0  0  0  0  0  0  0  0  0  0  0  0
   -4.4656   -0.0659  -21.4669 C   0  0  0  0  0  0  0  0  0  0  0  0
  1  2  2  0  0  0
  2 12  1  0  0  0
 12 13  1  0  0  0
 13 14  2  0  0  0
 14 15  1  0  0  0
 15 16  2  0  0  0
 16 17  1  0  0  0
 17 18  2  0  0  0
 18 19  1  0  0  0
 19 20  2  0  0  0
 20 21  1  0  0  0
 21 22  2  0  0  0
  2  3  1  0  0  0
  3  4  1  0  0  0
  4  5  1  0  0  0
  5  6  1  0  0  0
  6  7  1  0  0  0
  7  8  1  0  0  0
  8  9  2  0  0  0
  9 10  1  0  0  0
 10 11  1  0  0  0
 22 13  1  0  0  0
 11  3  1  0  0  0
 22 17  1  0  0  0
 10  6  2  0  0  0
M  END
> <minimizedAffinity>
-6.54690

> <CNNscore>
0.4010251760

> <CNNaffinity>
4.7902412415

> <CNN_VS>
1.9210073948

> <CNNaffinity_variance>
0.2177921832

$$$$



 22 25  0  0  0  0  0  0  0  0999 V2000
   -8.7879   -1.5019  -24.6040 O   0  0  0  0  0  0  0  0  0  0  0  0
   -7.6988   -1.5424  -23.5732 C   0  0  0  0  0  0  0  0  0  0  0  0
   -7.1745   -2.8612  -23.0875 N   0  0  0  0  0  0  0  0  0  0  0  0
   -6.0855   -2.9017  -22.0568 C   0  0  0  0  0  0  0  0  0  0  0  0
   -5.5613   -4.2205  -21.5711 C   0  0  0  0  0  0  0  0  0  0  0  0
   -6.1260   -5.4988  -22.1160 C   0  0  0  0  0  0  0  0  0  0  0  0
   -5.8118   -6.9373  -21.8300 S   0  0  0  0  0  0  0  0  0  0  0  0
   -6.7066   -7.7859  -22.6840 C   0  0  0  0  0  0  0  0  0  0  0  0
   -7.5739   -6.8718  -23.4978 C   0  0  0  0  0  0  0  0  0  0  0  0
   -7.2151   -5.4583  -23.1467 C   0  0  0  0  0  0  0  0  0  0  0  0
   -7.7393   -4.1395  -23.6325 C   0  0  0  0  0  0  0  0  0  0  0  0
   -7.1340   -0.2641  -23.0283 C   0  0  0  0  0  0  0  0  0  0  0  0
   -6.6960   -0.1883  -21.5957 C   0  0  0  0  0  0  0  0  0  0  0  0
   -7.5905   -0.7077  -20.5094 C   0  0  0  0  0  0  0  0  0  0  0  0
   -7.1524   -0.6319  -19.0768 N   0  0  0  0  0  0  0  0  0  0  0  0
   -5.8199   -0.0366  -18.7304 C   0  0  0  0  0  0  0  0  0  0  0  0
   -4.9253    0.4828  -19.8167 C   0  0  0  0  0  0  0  0  0  0  0  0
   -3.5928    1.0781  -19.4704 C   0  0  0  0  0  0  0  0  0  0  0  0
   -2.6983    1.5975  -20.5567 C   0  0  0  0  0  0  0  0  0  0  0  0
   -3.1364    1.5217  -21.9893 C   0  0  0  0  0  0  0  0  0  0  0  0
   -4.4689    0.9264  -22.3356 C   0  0  0  0  0  0  0  0  0  0  0  0
   -5.3634    0.4070  -21.2493 C   0  0  0  0  0  0  0  0  0  0  0  0
  1  2  2  0  0  0
  2 12  1  0  0  0
 12 13  1  0  0  0
 13 14  2  0  0  0
 14 15  1  0  0  0
 15 16  2  0  0  0
 16 17  1  0  0  0
 17 18  2  0  0  0
 18 19  1  0  0  0
 19 20  2  0  0  0
 20 21  1  0  0  0
 21 22  2  0  0  0
  2  3  1  0  0  0
  3  4  1  0  0  0
  4  5  1  0  0  0
  5  6  1  0  0  0
  6  7  1  0  0  0
  7  8  1  0  0  0
  8  9  2  0  0  0
  9 10  1  0  0  0
 10 11  1  0  0  0
 22 13  1  0  0  0
 11  3  1  0  0  0
 22 17  1  0  0  0
 10  6  2  0  0  0
M  END
> <minimizedAffinity>
-6.18926

> <CNNscore>
0.3947041929

> <CNNaffinity>
5.2083396912

> <CNN_VS>
2.0557534695

> <CNNaffinity_variance>
0.1349503547

$$$$



 22 25  0  0  0  0  0  0  0  0999 V2000
   -8.0225    0.3606  -20.9741 O   0  0  0  0  0  0  0  0  0  0  0  0
   -7.1743    0.1753  -22.1974 C   0  0  0  0  0  0  0  0  0  0  0  0
   -5.7076    0.4854  -22.1472 N   0  0  0  0  0  0  0  0  0  0  0  0
   -4.8595    0.3002  -23.3704 C   0  0  0  0  0  0  0  0  0  0  0  0
   -3.3927    0.6103  -23.3201 C   0  0  0  0  0  0  0  0  0  0  0  0
   -2.7742    1.1057  -22.0466 C   0  0  0  0  0  0  0  0  0  0  0  0
   -1.3671    1.4908  -21.6976 S   0  0  0  0  0  0  0  0  0  0  0  0
   -1.3455    1.9141  -20.2588 C   0  0  0  0  0  0  0  0  0  0  0  0
   -2.7394    1.7907  -19.7184 C   0  0  0  0  0  0  0  0  0  0  0  0
   -3.6223    1.2911  -20.8233 C   0  0  0  0  0  0  0  0  0  0  0  0
   -5.0890    0.9809  -20.8736 C   0  0  0  0  0  0  0  0  0  0  0  0
   -7.7929   -0.3201  -23.4709 C   0  0  0  0  0  0  0  0  0  0  0  0
   -9.0933   -1.0668  -23.4322 C   0  0  0  0  0  0  0  0  0  0  0  0
   -9.0960   -2.5649  -23.3577 C   0  0  0  0  0  0  0  0  0  0  0  0
  -10.3964   -3.3116  -23.3190 N   0  0  0  0  0  0  0  0  0  0  0  0
  -11.6941   -2.5601  -23.3547 C   0  0  0  0  0  0  0  0  0  0  0  0
  -11.6914   -1.0619  -23.4292 C   0  0  0  0  0  0  0  0  0  0  0  0
  -12.9891   -0.3104  -23.4649 C   0  0  0  0  0  0  0  0  0  0  0  0
  -12.9863    1.1877  -23.5394 C   0  0  0  0  0  0  0  0  0  0  0  0
  -11.6860    1.9343  -23.5781 C   0  0  0  0  0  0  0  0  0  0  0  0
  -10.3883    1.1829  -23.5424 C   0  0  0  0  0  0  0  0  0  0  0  0
  -10.3910   -0.3152  -23.4679 C   0  0  0  0  0  0  0  0  0  0  0  0
  1  2  2  0  0  0
  2 12  1  0  0  0
 12 13  1  0  0  0
 13 14  2  0  0  0
 14 15  1  0  0  0
 15 16  2  0  0  0
 16 17  1  0  0  0
 17 18  2  0  0  0
 18 19  1  0  0  0
 19 20  2  0  0  0
 20 21  1  0  0  0
 21 22  2  0  0  0
  2  3  1  0  0  0
  3  4  1  0  0  0
  4  5  1  0  0  0
  5  6  1  0  0  0
  6  7  1  0  0  0
  7  8  1  0  0  0
  8  9  2  0  0  0
  9 10  1  0  0  0
 10 11  1  0  0  0
 22 13  1  0  0  0
 11  3  1  0  0  0
 22 17  1  0  0  0
 10  6  2  0  0  0
M  END
> <minimizedAffinity>
-6.34502

> <CNNscore>
0.3909010887

> <CNNaffinity>
4.7068872452

> <CNN_VS>
1.8399273157

> <CNNaffinity_variance>
0.1495555490

$$$$



 22 25  0  0  0  0  0  0  0  0999 V2000
  -10.2305   -3.1283  -25.5612 O   0  0  0  0  0  0  0  0  0  0  0  0
   -9.5119   -3.3596  -24.2649 C   0  0  0  0  0  0  0  0  0  0  0  0
   -8.3716   -4.3323  -24.2027 N   0  0  0  0  0  0  0  0  0  0  0  0
   -7.6530   -4.5636  -22.9066 C   0  0  0  0  0  0  0  0  0  0  0  0
   -6.5128   -5.5362  -22.8444 C   0  0  0  0  0  0  0  0  0  0  0  0
   -6.0912   -6.2775  -24.0784 C   0  0  0  0  0  0  0  0  0  0  0  0
   -5.0115   -7.2900  -24.3213 S   0  0  0  0  0  0  0  0  0  0  0  0
   -5.0628   -7.6845  -25.7677 C   0  0  0  0  0  0  0  0  0  0  0  0
   -6.1742   -6.9157  -26.4186 C   0  0  0  0  0  0  0  0  0  0  0  0
   -6.8098   -6.0461  -25.3746 C   0  0  0  0  0  0  0  0  0  0  0  0
   -7.9500   -5.0735  -25.4368 C   0  0  0  0  0  0  0  0  0  0  0  0
   -9.9335   -2.6184  -23.0310 C   0  0  0  0  0  0  0  0  0  0  0  0
  -11.2621   -1.9231  -22.9909 C   0  0  0  0  0  0  0  0  0  0  0  0
  -12.4959   -2.6848  -22.6071 C   0  0  0  0  0  0  0  0  0  0  0  0
  -13.8244   -1.9895  -22.5670 N   0  0  0  0  0  0  0  0  0  0  0  0
  -13.9191   -0.5326  -22.9107 C   0  0  0  0  0  0  0  0  0  0  0  0
  -12.6852    0.2292  -23.2945 C   0  0  0  0  0  0  0  0  0  0  0  0
  -12.7799    1.6862  -23.6383 C   0  0  0  0  0  0  0  0  0  0  0  0
  -11.5460    2.4479  -24.0221 C   0  0  0  0  0  0  0  0  0  0  0  0
  -10.2175    1.7526  -24.0622 C   0  0  0  0  0  0  0  0  0  0  0  0
  -10.1228    0.2957  -23.7184 C   0  0  0  0  0  0  0  0  0  0  0  0
  -11.3567   -0.4660  -23.3346 C   0  0  0  0  0  0  0  0  0  0  0  0
  1  2  2  0  0  0
  2 12  1  0  0  0
 12 13  1  0  0  0
 13 14  2  0  0  0
 14 15  1  0  0  0
 15 16  2  0  0  0
 16 17  1  0  0  0
 17 18  2  0  0  0
 18 19  1  0  0  0
 19 20  2  0  0  0
 20 21  1  0  0  0
 21 22  2  0  0  0
  2  3  1  0  0  0
  3  4  1  0  0  0
  4  5  1  0  0  0
  5  6  1  0  0  0
  6  7  1  0  0  0
  7  8  1  0  0  0
  8  9  2  0  0  0
  9 10  1  0  0  0
 10 11  1  0  0  0
 22 13  1  0  0  0
 11  3  1  0  0  0
 22 17  1  0  0  0
 10  6  2  0  0  0
M  END
> <minimizedAffinity>
-6.51447

> <CNNscore>
0.3129553199

> <CNNaffinity>
4.7658472061

> <CNN_VS>
1.4914972782

> <CNNaffinity_variance>
0.4512334764

$$$$



 22 25  0  0  0  0  0  0  0  0999 V2000
   -5.2392   -3.6755  -19.1658 O   0  0  0  0  0  0  0  0  0  0  0  0
   -5.4831   -2.7932  -20.3542 C   0  0  0  0  0  0  0  0  0  0  0  0
   -5.7673   -3.4026  -21.6950 N   0  0  0  0  0  0  0  0  0  0  0  0
   -6.0112   -2.5204  -22.8833 C   0  0  0  0  0  0  0  0  0  0  0  0
   -6.2955   -3.1298  -24.2241 C   0  0  0  0  0  0  0  0  0  0  0  0
   -6.3357   -4.6215  -24.3767 C   0  0  0  0  0  0  0  0  0  0  0  0
   -6.5893   -5.5026  -25.5638 S   0  0  0  0  0  0  0  0  0  0  0  0
   -6.5021   -6.9294  -25.1092 C   0  0  0  0  0  0  0  0  0  0  0  0
   -6.1946   -6.9301  -23.6411 C   0  0  0  0  0  0  0  0  0  0  0  0
   -6.0918   -5.5038  -23.1883 C   0  0  0  0  0  0  0  0  0  0  0  0
   -5.8076   -4.8944  -21.8475 C   0  0  0  0  0  0  0  0  0  0  0  0
   -5.4428   -1.3016  -20.2017 C   0  0  0  0  0  0  0  0  0  0  0  0
   -6.4885   -0.4517  -20.8607 C   0  0  0  0  0  0  0  0  0  0  0  0
   -7.8974   -0.9528  -20.9784 C   0  0  0  0  0  0  0  0  0  0  0  0
   -8.9430   -0.1029  -21.6375 N   0  0  0  0  0  0  0  0  0  0  0  0
   -8.5798    1.2479  -22.1789 C   0  0  0  0  0  0  0  0  0  0  0  0
   -7.1708    1.7490  -22.0612 C   0  0  0  0  0  0  0  0  0  0  0  0
   -6.8076    3.0999  -22.6026 C   0  0  0  0  0  0  0  0  0  0  0  0
   -5.3987    3.6009  -22.4850 C   0  0  0  0  0  0  0  0  0  0  0  0
   -4.3530    2.7511  -21.8259 C   0  0  0  0  0  0  0  0  0  0  0  0
   -4.7163    1.4003  -21.2845 C   0  0  0  0  0  0  0  0  0  0  0  0
   -6.1252    0.8992  -21.4021 C   0  0  0  0  0  0  0  0  0  0  0  0
  1  2  2  0  0  0
  2 12  1  0  0  0
 12 13  1  0  0  0
 13 14  2  0  0  0
 14 15  1  0  0  0
 15 16  2  0  0  0
 16 17  1  0  0  0
 17 18  2  0  0  0
 18 19  1  0  0  0
 19 20  2  0  0  0
 20 21  1  0  0  0
 21 22  2  0  0  0
  2  3  1  0  0  0
  3  4  1  0  0  0
  4  5  1  0  0  0
  5  6  1  0  0  0
  6  7  1  0  0  0
  7  8  1  0  0  0
  8  9  2  0  0  0
  9 10  1  0  0  0
 10 11  1  0  0  0
 22 13  1  0  0  0
 11  3  1  0  0  0
 22 17  1  0  0  0
 10  6  2  0  0  0
M  END
> <minimizedAffinity>
-6.50787

> <CNNscore>
0.2993755937

> <CNNaffinity>
4.9866132736

> <CNN_VS>
1.4928703308

> <CNNaffinity_variance>
0.0987100601

$$$$



 22 25  0  0  0  0  0  0  0  0999 V2000
   -8.8009   -1.8626  -21.3229 O   0  0  0  0  0  0  0  0  0  0  0  0
   -7.7945   -1.7669  -22.4312 C   0  0  0  0  0  0  0  0  0  0  0  0
   -6.5005   -1.0417  -22.2087 N   0  0  0  0  0  0  0  0  0  0  0  0
   -5.4942   -0.9460  -23.3169 C   0  0  0  0  0  0  0  0  0  0  0  0
   -4.2002   -0.2208  -23.0944 C   0  0  0  0  0  0  0  0  0  0  0  0
   -3.9125    0.4089  -21.7637 C   0  0  0  0  0  0  0  0  0  0  0  0
   -2.7330    1.1824  -21.2533 S   0  0  0  0  0  0  0  0  0  0  0  0
   -3.0104    1.5648  -19.8296 C   0  0  0  0  0  0  0  0  0  0  0  0
   -4.3613    1.0276  -19.4601 C   0  0  0  0  0  0  0  0  0  0  0  0
   -4.9188    0.3132  -20.6554 C   0  0  0  0  0  0  0  0  0  0  0  0
   -6.2128   -0.4120  -20.8779 C   0  0  0  0  0  0  0  0  0  0  0  0
   -8.0822   -2.3966  -23.7619 C   0  0  0  0  0  0  0  0  0  0  0  0
   -8.0050   -3.8863  -23.9191 C   0  0  0  0  0  0  0  0  0  0  0  0
   -7.4341   -4.7282  -22.8168 C   0  0  0  0  0  0  0  0  0  0  0  0
   -7.3569   -6.2180  -22.9741 N   0  0  0  0  0  0  0  0  0  0  0  0
   -7.8506   -6.8658  -24.2336 C   0  0  0  0  0  0  0  0  0  0  0  0
   -8.4216   -6.0238  -25.3360 C   0  0  0  0  0  0  0  0  0  0  0  0
   -8.9153   -6.6716  -26.5956 C   0  0  0  0  0  0  0  0  0  0  0  0
   -9.4863   -5.8297  -27.6979 C   0  0  0  0  0  0  0  0  0  0  0  0
   -9.5635   -4.3400  -27.5407 C   0  0  0  0  0  0  0  0  0  0  0  0
   -9.0697   -3.6922  -26.2811 C   0  0  0  0  0  0  0  0  0  0  0  0
   -8.4988   -4.5341  -25.1788 C   0  0  0  0  0  0  0  0  0  0  0  0
  1  2  2  0  0  0
  2 12  1  0  0  0
 12 13  1  0  0  0
 13 14  2  0  0  0
 14 15  1  0  0  0
 15 16  2  0  0  0
 16 17  1  0  0  0
 17 18  2  0  0  0
 18 19  1  0  0  0
 19 20  2  0  0  0
 20 21  1  0  0  0
 21 22  2  0  0  0
  2  3  1  0  0  0
  3  4  1  0  0  0
  4  5  1  0  0  0
  5  6  1  0  0  0
  6  7  1  0  0  0
  7  8  1  0  0  0
  8  9  2  0  0  0
  9 10  1  0  0  0
 10 11  1  0  0  0
 22 13  1  0  0  0
 11  3  1  0  0  0
 22 17  1  0  0  0
 10  6  2  0  0  0
M  END
> <minimizedAffinity>
-6.22381

> <CNNscore>
0.2942170501

> <CNNaffinity>
4.7536005974

> <CNN_VS>
1.3985903263

> <CNNaffinity_variance>
0.0885834843

$$$$
