


 40 45  0  0  0  0  0  0  0  0999 V2000
   -7.2882   -1.4319  -24.1002 N   0  0  0  0  0  0  0  0  0  0  0  0
   -7.6970    0.0064  -24.2194 C   0  0  0  0  0  0  0  0  0  0  0  0
   -9.1282    0.3998  -24.0029 C   0  0  0  0  0  0  0  0  0  0  0  0
  -10.5145    0.9408  -23.8151 C   0  0  0  0  0  0  0  0  0  0  0  0
  -11.6362    0.5556  -23.5509 O   0  0  0  0  0  0  0  0  0  0  0  0
  -10.4656    2.4250  -24.0269 N   0  0  0  0  0  0  0  0  0  0  0  0
   -9.0489    2.8012  -24.3456 C   0  0  0  0  0  0  0  0  0  0  0  0
   -8.2224    1.5496  -24.3308 C   0  0  0  0  0  0  0  0  0  0  0  0
  -10.1507   -0.6452  -23.6673 C   0  0  0  0  0  0  0  0  0  0  0  0
  -11.5819   -0.2519  -23.4509 C   0  0  0  0  0  0  0  0  0  0  0  0
  -12.6043   -1.2969  -23.1154 C   0  0  0  0  0  0  0  0  0  0  0  0
  -14.0356   -0.9036  -22.8989 Cl  0  0  0  0  0  0  0  0  0  0  0  0
  -12.1955   -2.7352  -22.9962 C   0  0  0  0  0  0  0  0  0  0  0  0
  -10.7643   -3.1285  -23.2126 C   0  0  0  0  0  0  0  0  0  0  0  0
   -9.7419   -2.0835  -23.5482 C   0  0  0  0  0  0  0  0  0  0  0  0
   -8.3106   -2.4768  -23.7646 C   0  0  0  0  0  0  0  0  0  0  0  0
   -7.9018   -3.9151  -23.6455 O   0  0  0  0  0  0  0  0  0  0  0  0
  -11.6290    3.3674  -23.9360 C   0  0  0  0  0  0  0  0  0  0  0  0
  -12.4059    3.4787  -22.6577 C   0  0  0  0  0  0  0  0  0  0  0  0
  -13.5694    4.4211  -22.5668 N   0  0  0  0  0  0  0  0  0  0  0  0
  -13.9558    5.2523  -23.7541 C   0  0  0  0  0  0  0  0  0  0  0  0
  -13.1788    5.1410  -25.0324 C   0  0  0  0  0  0  0  0  0  0  0  0
  -13.5653    5.9722  -26.2198 C   0  0  0  0  0  0  0  0  0  0  0  0
  -12.7883    5.8609  -27.4980 C   0  0  0  0  0  0  0  0  0  0  0  0
  -11.6249    4.9185  -27.5890 C   0  0  0  0  0  0  0  0  0  0  0  0
  -11.2384    4.0873  -26.4016 C   0  0  0  0  0  0  0  0  0  0  0  0
  -12.0154    4.1986  -25.1233 C   0  0  0  0  0  0  0  0  0  0  0  0
   -5.8569   -1.8252  -24.3166 C   0  0  0  0  0  0  0  0  0  0  0  0
   -4.7608   -5.0372  -26.3736 C   0  0  0  0  0  0  0  0  0  0  0  0
   -5.1286   -4.1488  -25.2224 N   0  0  0  0  0  0  0  0  0  0  0  0
   -5.4891   -2.7136  -25.4679 C   0  0  0  0  0  0  0  0  0  0  0  0
   -5.4819   -2.1669  -26.8647 O   0  0  0  0  0  0  0  0  0  0  0  0
   -5.1333   -4.5076  -24.3056 H   0  0  0  0  0  0  0  0  0  0  0  0
   -6.7488    1.4629  -24.5971 C   0  0  0  0  0  0  0  0  0  0  0  0
   -5.7919    2.2968  -23.7978 C   0  0  0  0  0  0  0  0  0  0  0  0
   -4.9475    3.3316  -24.4807 C   0  0  0  0  0  0  0  0  0  0  0  0
   -3.9906    4.1654  -23.6813 C   0  0  0  0  0  0  0  0  0  0  0  0
   -3.8780    3.9645  -22.1991 C   0  0  0  0  0  0  0  0  0  0  0  0
   -4.7223    2.9298  -21.5162 C   0  0  0  0  0  0  0  0  0  0  0  0
   -5.6793    2.0959  -22.3155 C   0  0  0  0  0  0  0  0  0  0  0  0
 29 30  1  0  0  0
 30 31  1  0  0  0
 31 32  2  0  0  0
 31 28  1  0  0  0
 28  1  1  0  0  0
  1  2  1  0  0  0
  3  2  1  0  0  0
  3  4  1  0  0  0
  4  5  2  0  0  0
  4  6  1  0  0  0
  6 18  1  0  0  0
 18 19  2  0  0  0
 19 20  1  0  0  0
 20 21  2  0  0  0
 21 22  1  0  0  0
 22 23  2  0  0  0
 23 24  1  0  0  0
 24 25  2  0  0  0
 25 26  1  0  0  0
 26 27  2  0  0  0
  6  7  1  0  0  0
  7  8  1  0  0  0
  8 34  1  0  0  0
 34 35  1  0  0  0
 35 36  2  0  0  0
 36 37  1  0  0  0
 37 38  2  0  0  0
 38 39  1  0  0  0
 39 40  2  0  0  0
  3  9  1  0  0  0
  9 10  2  0  0  0
 10 11  1  0  0  0
 11 12  1  0  0  0
 11 13  2  0  0  0
 13 14  1  0  0  0
 14 15  2  0  0  0
 15 16  1  0  0  0
 16 17  2  0  0  0
 16  1  1  0  0  0
  8  3  1  0  0  0
 40 35  1  0  0  0
 15  9  1  0  0  0
 27 18  1  0  0  0
 27 22  1  0  0  0
 30 33  1  0  0  0
M  END
> <minimizedAffinity>
-7.20329

> <CNNscore>
0.6944687366

> <CNNaffinity>
6.9404730797

> <CNN_VS>
4.8199415207

> <CNNaffinity_variance>
0.1183688417

$$$$



 40 45  0  0  0  0  0  0  0  0999 V2000
   -5.9371   -4.1474  -21.7786 N   0  0  0  0  0  0  0  0  0  0  0  0
   -6.3708   -3.5937  -23.1035 C   0  0  0  0  0  0  0  0  0  0  0  0
   -6.3493   -2.1128  -23.3408 C   0  0  0  0  0  0  0  0  0  0  0  0
   -6.3816   -0.6625  -23.7224 C   0  0  0  0  0  0  0  0  0  0  0  0
   -6.1347    0.4298  -23.2508 O   0  0  0  0  0  0  0  0  0  0  0  0
   -6.8792   -0.5656  -25.1341 N   0  0  0  0  0  0  0  0  0  0  0  0
   -7.1544   -1.9560  -25.6251 C   0  0  0  0  0  0  0  0  0  0  0  0
   -6.8269   -2.9122  -24.5167 C   0  0  0  0  0  0  0  0  0  0  0  0
   -5.8941   -1.1855  -22.2531 C   0  0  0  0  0  0  0  0  0  0  0  0
   -5.8726    0.2955  -22.4904 C   0  0  0  0  0  0  0  0  0  0  0  0
   -5.4174    1.2227  -21.4028 C   0  0  0  0  0  0  0  0  0  0  0  0
   -5.3959    2.7037  -21.6400 Cl  0  0  0  0  0  0  0  0  0  0  0  0
   -4.9837    0.6690  -20.0779 C   0  0  0  0  0  0  0  0  0  0  0  0
   -5.0051   -0.8119  -19.8406 C   0  0  0  0  0  0  0  0  0  0  0  0
   -5.4604   -1.7392  -20.9283 C   0  0  0  0  0  0  0  0  0  0  0  0
   -5.4819   -3.2202  -20.6910 C   0  0  0  0  0  0  0  0  0  0  0  0
   -5.0482   -3.7739  -19.3661 O   0  0  0  0  0  0  0  0  0  0  0  0
   -7.0683    0.6997  -25.9174 C   0  0  0  0  0  0  0  0  0  0  0  0
   -8.3976    1.3945  -25.9104 C   0  0  0  0  0  0  0  0  0  0  0  0
   -8.5867    2.6597  -26.6936 N   0  0  0  0  0  0  0  0  0  0  0  0
   -7.4464    3.2301  -27.4839 C   0  0  0  0  0  0  0  0  0  0  0  0
   -6.1171    2.5352  -27.4908 C   0  0  0  0  0  0  0  0  0  0  0  0
   -4.9768    3.1056  -28.2811 C   0  0  0  0  0  0  0  0  0  0  0  0
   -3.6475    2.4107  -28.2880 C   0  0  0  0  0  0  0  0  0  0  0  0
   -3.4584    1.1455  -27.5048 C   0  0  0  0  0  0  0  0  0  0  0  0
   -4.5986    0.5752  -26.7146 C   0  0  0  0  0  0  0  0  0  0  0  0
   -5.9280    1.2700  -26.7076 C   0  0  0  0  0  0  0  0  0  0  0  0
   -5.9586   -5.6284  -21.5414 C   0  0  0  0  0  0  0  0  0  0  0  0
   -3.3237   -7.2050  -24.0557 C   0  0  0  0  0  0  0  0  0  0  0  0
   -3.9520   -6.2766  -23.0590 N   0  0  0  0  0  0  0  0  0  0  0  0
   -5.3304   -6.5568  -22.5381 C   0  0  0  0  0  0  0  0  0  0  0  0
   -6.0806   -7.7656  -23.0138 O   0  0  0  0  0  0  0  0  0  0  0  0
   -3.4596   -5.4833  -22.7468 H   0  0  0  0  0  0  0  0  0  0  0  0
   -6.9547   -4.4056  -24.5743 C   0  0  0  0  0  0  0  0  0  0  0  0
   -7.9764   -5.0369  -25.4728 C   0  0  0  0  0  0  0  0  0  0  0  0
   -8.4896   -4.2886  -26.6672 C   0  0  0  0  0  0  0  0  0  0  0  0
   -9.5114   -4.9200  -27.5657 C   0  0  0  0  0  0  0  0  0  0  0  0
  -10.0199   -6.2997  -27.2698 C   0  0  0  0  0  0  0  0  0  0  0  0
   -9.5069   -7.0482  -26.0755 C   0  0  0  0  0  0  0  0  0  0  0  0
   -8.4850   -6.4168  -25.1769 C   0  0  0  0  0  0  0  0  0  0  0  0
 29 30  1  0  0  0
 30 31  1  0  0  0
 31 32  2  0  0  0
 31 28  1  0  0  0
 28  1  1  0  0  0
  1  2  1  0  0  0
  3  2  1  0  0  0
  3  4  1  0  0  0
  4  5  2  0  0  0
  4  6  1  0  0  0
  6 18  1  0  0  0
 18 19  2  0  0  0
 19 20  1  0  0  0
 20 21  2  0  0  0
 21 22  1  0  0  0
 22 23  2  0  0  0
 23 24  1  0  0  0
 24 25  2  0  0  0
 25 26  1  0  0  0
 26 27  2  0  0  0
  6  7  1  0  0  0
  7  8  1  0  0  0
  8 34  1  0  0  0
 34 35  1  0  0  0
 35 36  2  0  0  0
 36 37  1  0  0  0
 37 38  2  0  0  0
 38 39  1  0  0  0
 39 40  2  0  0  0
  3  9  1  0  0  0
  9 10  2  0  0  0
 10 11  1  0  0  0
 11 12  1  0  0  0
 11 13  2  0  0  0
 13 14  1  0  0  0
 14 15  2  0  0  0
 15 16  1  0  0  0
 16 17  2  0  0  0
 16  1  1  0  0  0
  8  3  1  0  0  0
 40 35  1  0  0  0
 15  9  1  0  0  0
 27 18  1  0  0  0
 27 22  1  0  0  0
 30 33  1  0  0  0
M  END
> <minimizedAffinity>
-7.46199

> <CNNscore>
0.4232036471

> <CNNaffinity>
6.6478691101

> <CNN_VS>
2.8134024143

> <CNNaffinity_variance>
0.0377621539

$$$$



 40 45  0  0  0  0  0  0  0  0999 V2000
  -11.4374    3.7655  -23.9988 N   0  0  0  0  0  0  0  0  0  0  0  0
  -10.0848    3.1230  -23.9126 C   0  0  0  0  0  0  0  0  0  0  0  0
   -9.9692    1.6495  -23.6569 C   0  0  0  0  0  0  0  0  0  0  0  0
   -9.6981    0.1954  -23.4077 C   0  0  0  0  0  0  0  0  0  0  0  0
  -10.2978   -0.8435  -23.2142 O   0  0  0  0  0  0  0  0  0  0  0  0
   -8.2114   -0.0045  -23.4016 N   0  0  0  0  0  0  0  0  0  0  0  0
   -7.5638    1.3260  -23.6471 C   0  0  0  0  0  0  0  0  0  0  0  0
   -8.6502    2.3482  -23.8049 C   0  0  0  0  0  0  0  0  0  0  0  0
  -11.2065    0.8184  -23.4874 C   0  0  0  0  0  0  0  0  0  0  0  0
  -11.0910   -0.6551  -23.2317 C   0  0  0  0  0  0  0  0  0  0  0  0
  -12.3281   -1.4861  -23.0622 C   0  0  0  0  0  0  0  0  0  0  0  0
  -12.2127   -2.9597  -22.8065 Cl  0  0  0  0  0  0  0  0  0  0  0  0
  -13.6808   -0.8436  -23.1483 C   0  0  0  0  0  0  0  0  0  0  0  0
  -13.7963    0.6299  -23.4040 C   0  0  0  0  0  0  0  0  0  0  0  0
  -12.5592    1.4609  -23.5735 C   0  0  0  0  0  0  0  0  0  0  0  0
  -12.6746    2.9345  -23.8292 C   0  0  0  0  0  0  0  0  0  0  0  0
  -14.0273    3.5770  -23.9153 O   0  0  0  0  0  0  0  0  0  0  0  0
   -7.4978   -1.3064  -23.1877 C   0  0  0  0  0  0  0  0  0  0  0  0
   -6.8742   -1.6101  -21.8577 C   0  0  0  0  0  0  0  0  0  0  0  0
   -6.1605   -2.9120  -21.6437 N   0  0  0  0  0  0  0  0  0  0  0  0
   -6.0705   -3.9102  -22.7597 C   0  0  0  0  0  0  0  0  0  0  0  0
   -6.6941   -3.6064  -24.0897 C   0  0  0  0  0  0  0  0  0  0  0  0
   -6.6040   -4.6047  -25.2058 C   0  0  0  0  0  0  0  0  0  0  0  0
   -7.2277   -4.3009  -26.5357 C   0  0  0  0  0  0  0  0  0  0  0  0
   -7.9413   -2.9990  -26.7497 C   0  0  0  0  0  0  0  0  0  0  0  0
   -8.0314   -2.0009  -25.6337 C   0  0  0  0  0  0  0  0  0  0  0  0
   -7.4078   -2.3046  -24.3037 C   0  0  0  0  0  0  0  0  0  0  0  0
  -11.5529    5.2391  -24.2544 C   0  0  0  0  0  0  0  0  0  0  0  0
  -13.9462    6.3846  -27.2056 C   0  0  0  0  0  0  0  0  0  0  0  0
  -13.4827    5.8896  -25.8677 N   0  0  0  0  0  0  0  0  0  0  0  0
  -12.0164    5.7340  -25.5924 C   0  0  0  0  0  0  0  0  0  0  0  0
  -11.0136    6.0734  -26.6551 O   0  0  0  0  0  0  0  0  0  0  0  0
  -14.1408    5.6669  -25.1702 H   0  0  0  0  0  0  0  0  0  0  0  0
   -8.4523    3.8122  -24.0650 C   0  0  0  0  0  0  0  0  0  0  0  0
   -7.0745    4.4030  -24.0166 C   0  0  0  0  0  0  0  0  0  0  0  0
   -6.2646    4.5216  -25.2736 C   0  0  0  0  0  0  0  0  0  0  0  0
   -4.8867    5.1124  -25.2251 C   0  0  0  0  0  0  0  0  0  0  0  0
   -4.3187    5.5847  -23.9196 C   0  0  0  0  0  0  0  0  0  0  0  0
   -5.1285    5.4662  -22.6626 C   0  0  0  0  0  0  0  0  0  0  0  0
   -6.5064    4.8753  -22.7110 C   0  0  0  0  0  0  0  0  0  0  0  0
 29 30  1  0  0  0
 30 31  1  0  0  0
 31 32  2  0  0  0
 31 28  1  0  0  0
 28  1  1  0  0  0
  1  2  1  0  0  0
  3  2  1  0  0  0
  3  4  1  0  0  0
  4  5  2  0  0  0
  4  6  1  0  0  0
  6 18  1  0  0  0
 18 19  2  0  0  0
 19 20  1  0  0  0
 20 21  2  0  0  0
 21 22  1  0  0  0
 22 23  2  0  0  0
 23 24  1  0  0  0
 24 25  2  0  0  0
 25 26  1  0  0  0
 26 27  2  0  0  0
  6  7  1  0  0  0
  7  8  1  0  0  0
  8 34  1  0  0  0
 34 35  1  0  0  0
 35 36  2  0  0  0
 36 37  1  0  0  0
 37 38  2  0  0  0
 38 39  1  0  0  0
 39 40  2  0  0  0
  3  9  1  0  0  0
  9 10  2  0  0  0
 10 11  1  0  0  0
 11 12  1  0  0  0
 11 13  2  0  0  0
 13 14  1  0  0  0
 14 15  2  0  0  0
 15 16  1  0  0  0
 16 17  2  0  0  0
 16  1  1  0  0  0
  8  3  1  0  0  0
 40 35  1  0  0  0
 15  9  1  0  0  0
 27 18  1  0  0  0
 27 22  1  0  0  0
 30 33  1  0  0  0
M  END
> <minimizedAffinity>
-7.29901

> <CNNscore>
0.4085584283

> <CNNaffinity>
6.7814283371

> <CNN_VS>
2.7706096172

> <CNNaffinity_variance>
0.3068847060

$$$$



 40 45  0  0  0  0  0  0  0  0999 V2000
   -7.0021   -1.2662  -22.5090 N   0  0  0  0  0  0  0  0  0  0  0  0
   -7.1002    0.0606  -23.2019 C   0  0  0  0  0  0  0  0  0  0  0  0
   -8.4330    0.5660  -23.6689 C   0  0  0  0  0  0  0  0  0  0  0  0
   -9.6899    1.1984  -24.1888 C   0  0  0  0  0  0  0  0  0  0  0  0
  -10.8822    0.9761  -24.2621 O   0  0  0  0  0  0  0  0  0  0  0  0
   -9.3251    2.5165  -24.8048 N   0  0  0  0  0  0  0  0  0  0  0  0
   -7.8428    2.6988  -24.6657 C   0  0  0  0  0  0  0  0  0  0  0  0
   -7.2914    1.4934  -23.9636 C   0  0  0  0  0  0  0  0  0  0  0  0
   -9.6677   -0.2552  -23.4430 C   0  0  0  0  0  0  0  0  0  0  0  0
  -11.0005    0.2502  -23.9100 C   0  0  0  0  0  0  0  0  0  0  0  0
  -12.2352   -0.5710  -23.6840 C   0  0  0  0  0  0  0  0  0  0  0  0
  -13.5681   -0.0655  -24.1510 Cl  0  0  0  0  0  0  0  0  0  0  0  0
  -12.1371   -1.8977  -22.9910 C   0  0  0  0  0  0  0  0  0  0  0  0
  -10.8043   -2.4032  -22.5240 C   0  0  0  0  0  0  0  0  0  0  0  0
   -9.5696   -1.5820  -22.7500 C   0  0  0  0  0  0  0  0  0  0  0  0
   -8.2367   -2.0874  -22.2830 C   0  0  0  0  0  0  0  0  0  0  0  0
   -8.1386   -3.4141  -21.5900 O   0  0  0  0  0  0  0  0  0  0  0  0
  -10.2759    3.4827  -25.4473 C   0  0  0  0  0  0  0  0  0  0  0  0
  -10.1489    3.8010  -26.9076 C   0  0  0  0  0  0  0  0  0  0  0  0
  -11.0997    4.7672  -27.5500 N   0  0  0  0  0  0  0  0  0  0  0  0
  -12.1773    5.4150  -26.7321 C   0  0  0  0  0  0  0  0  0  0  0  0
  -12.3042    5.0966  -25.2717 C   0  0  0  0  0  0  0  0  0  0  0  0
  -13.3819    5.7445  -24.4538 C   0  0  0  0  0  0  0  0  0  0  0  0
  -13.5087    5.4261  -22.9934 C   0  0  0  0  0  0  0  0  0  0  0  0
  -12.5580    4.4599  -22.3510 C   0  0  0  0  0  0  0  0  0  0  0  0
  -11.4804    3.8121  -23.1690 C   0  0  0  0  0  0  0  0  0  0  0  0
  -11.3535    4.1305  -24.6293 C   0  0  0  0  0  0  0  0  0  0  0  0
   -5.6692   -1.7716  -22.0419 C   0  0  0  0  0  0  0  0  0  0  0  0
   -5.5150   -5.7340  -21.8812 C   0  0  0  0  0  0  0  0  0  0  0  0
   -5.6407   -4.3413  -22.4240 N   0  0  0  0  0  0  0  0  0  0  0  0
   -5.5435   -3.1643  -21.4992 C   0  0  0  0  0  0  0  0  0  0  0  0
   -5.3205   -3.3800  -20.0316 O   0  0  0  0  0  0  0  0  0  0  0  0
   -5.7871   -4.1997  -23.3872 H   0  0  0  0  0  0  0  0  0  0  0  0
   -5.8513    1.2568  -23.6172 C   0  0  0  0  0  0  0  0  0  0  0  0
   -4.9819    2.4054  -23.1992 C   0  0  0  0  0  0  0  0  0  0  0  0
   -4.1141    2.2850  -21.9817 C   0  0  0  0  0  0  0  0  0  0  0  0
   -3.2447    3.4338  -21.5637 C   0  0  0  0  0  0  0  0  0  0  0  0
   -3.2432    4.7029  -22.3633 C   0  0  0  0  0  0  0  0  0  0  0  0
   -4.1110    4.8234  -23.5808 C   0  0  0  0  0  0  0  0  0  0  0  0
   -4.9804    3.6746  -23.9988 C   0  0  0  0  0  0  0  0  0  0  0  0
 29 30  1  0  0  0
 30 31  1  0  0  0
 31 32  2  0  0  0
 31 28  1  0  0  0
 28  1  1  0  0  0
  1  2  1  0  0  0
  3  2  1  0  0  0
  3  4  1  0  0  0
  4  5  2  0  0  0
  4  6  1  0  0  0
  6 18  1  0  0  0
 18 19  2  0  0  0
 19 20  1  0  0  0
 20 21  2  0  0  0
 21 22  1  0  0  0
 22 23  2  0  0  0
 23 24  1  0  0  0
 24 25  2  0  0  0
 25 26  1  0  0  0
 26 27  2  0  0  0
  6  7  1  0  0  0
  7  8  1  0  0  0
  8 34  1  0  0  0
 34 35  1  0  0  0
 35 36  2  0  0  0
 36 37  1  0  0  0
 37 38  2  0  0  0
 38 39  1  0  0  0
 39 40  2  0  0  0
  3  9  1  0  0  0
  9 10  2  0  0  0
 10 11  1  0  0  0
 11 12  1  0  0  0
 11 13  2  0  0  0
 13 14  1  0  0  0
 14 15  2  0  0  0
 15 16  1  0  0  0
 16 17  2  0  0  0
 16  1  1  0  0  0
  8  3  1  0  0  0
 40 35  1  0  0  0
 15  9  1  0  0  0
 27 18  1  0  0  0
 27 22  1  0  0  0
 30 33  1  0  0  0
M  END
> <minimizedAffinity>
-7.15798

> <CNNscore>
0.3662482798

> <CNNaffinity>
6.6677832603

> <CNN_VS>
2.4420640469

> <CNNaffinity_variance>
0.2565571070

$$$$



 40 45  0  0  0  0  0  0  0  0999 V2000
  -11.6285    3.9613  -24.0743 N   0  0  0  0  0  0  0  0  0  0  0  0
  -10.2372    3.4068  -23.9909 C   0  0  0  0  0  0  0  0  0  0  0  0
  -10.0270    1.9446  -23.7304 C   0  0  0  0  0  0  0  0  0  0  0  0
   -9.6627    0.5118  -23.4769 C   0  0  0  0  0  0  0  0  0  0  0  0
  -10.1941   -0.5625  -23.2773 O   0  0  0  0  0  0  0  0  0  0  0  0
   -8.1663    0.4072  -23.4757 N   0  0  0  0  0  0  0  0  0  0  0  0
   -7.6058    1.7754  -23.7285 C   0  0  0  0  0  0  0  0  0  0  0  0
   -8.7558    2.7255  -23.8859 C   0  0  0  0  0  0  0  0  0  0  0  0
  -11.2080    1.0370  -23.5531 C   0  0  0  0  0  0  0  0  0  0  0  0
  -10.9978   -0.4252  -23.2925 C   0  0  0  0  0  0  0  0  0  0  0  0
  -12.1788   -1.3328  -23.1153 C   0  0  0  0  0  0  0  0  0  0  0  0
  -11.9686   -2.7950  -22.8547 Cl  0  0  0  0  0  0  0  0  0  0  0  0
  -13.5701   -0.7782  -23.1987 C   0  0  0  0  0  0  0  0  0  0  0  0
  -13.7803    0.6839  -23.4592 C   0  0  0  0  0  0  0  0  0  0  0  0
  -12.5993    1.5915  -23.6365 C   0  0  0  0  0  0  0  0  0  0  0  0
  -12.8095    3.0537  -23.8970 C   0  0  0  0  0  0  0  0  0  0  0  0
  -14.2007    3.6082  -23.9804 O   0  0  0  0  0  0  0  0  0  0  0  0
   -7.3703   -0.8457  -23.2597 C   0  0  0  0  0  0  0  0  0  0  0  0
   -7.0987   -1.7694  -24.4099 C   0  0  0  0  0  0  0  0  0  0  0  0
   -6.3026   -3.0223  -24.1939 N   0  0  0  0  0  0  0  0  0  0  0  0
   -5.7782   -3.3514  -22.8277 C   0  0  0  0  0  0  0  0  0  0  0  0
   -6.0497   -2.4276  -21.6775 C   0  0  0  0  0  0  0  0  0  0  0  0
   -5.5252   -2.7568  -20.3112 C   0  0  0  0  0  0  0  0  0  0  0  0
   -5.7968   -1.8330  -19.1611 C   0  0  0  0  0  0  0  0  0  0  0  0
   -6.5928   -0.5801  -19.3771 C   0  0  0  0  0  0  0  0  0  0  0  0
   -7.1173   -0.2510  -20.7433 C   0  0  0  0  0  0  0  0  0  0  0  0
   -6.8458   -1.1748  -21.8935 C   0  0  0  0  0  0  0  0  0  0  0  0
  -11.8387    5.4235  -24.3348 C   0  0  0  0  0  0  0  0  0  0  0  0
  -13.9971    6.4648  -27.4982 C   0  0  0  0  0  0  0  0  0  0  0  0
  -13.6380    5.9925  -26.1205 N   0  0  0  0  0  0  0  0  0  0  0  0
  -12.1978    5.8958  -25.7125 C   0  0  0  0  0  0  0  0  0  0  0  0
  -11.1167    6.2712  -26.6823 O   0  0  0  0  0  0  0  0  0  0  0  0
  -14.3475    5.7461  -25.4841 H   0  0  0  0  0  0  0  0  0  0  0  0
   -8.6526    4.1981  -24.1520 C   0  0  0  0  0  0  0  0  0  0  0  0
   -7.4599    4.9665  -23.6654 C   0  0  0  0  0  0  0  0  0  0  0  0
   -7.5937    5.8991  -22.4981 C   0  0  0  0  0  0  0  0  0  0  0  0
   -6.4009    6.6675  -22.0115 C   0  0  0  0  0  0  0  0  0  0  0  0
   -5.0743    6.5033  -22.6922 C   0  0  0  0  0  0  0  0  0  0  0  0
   -4.9405    5.5708  -23.8594 C   0  0  0  0  0  0  0  0  0  0  0  0
   -6.1333    4.8024  -24.3461 C   0  0  0  0  0  0  0  0  0  0  0  0
 29 30  1  0  0  0
 30 31  1  0  0  0
 31 32  2  0  0  0
 31 28  1  0  0  0
 28  1  1  0  0  0
  1  2  1  0  0  0
  3  2  1  0  0  0
  3  4  1  0  0  0
  4  5  2  0  0  0
  4  6  1  0  0  0
  6 18  1  0  0  0
 18 19  2  0  0  0
 19 20  1  0  0  0
 20 21  2  0  0  0
 21 22  1  0  0  0
 22 23  2  0  0  0
 23 24  1  0  0  0
 24 25  2  0  0  0
 25 26  1  0  0  0
 26 27  2  0  0  0
  6  7  1  0  0  0
  7  8  1  0  0  0
  8 34  1  0  0  0
 34 35  1  0  0  0
 35 36  2  0  0  0
 36 37  1  0  0  0
 37 38  2  0  0  0
 38 39  1  0  0  0
 39 40  2  0  0  0
  3  9  1  0  0  0
  9 10  2  0  0  0
 10 11  1  0  0  0
 11 12  1  0  0  0
 11 13  2  0  0  0
 13 14  1  0  0  0
 14 15  2  0  0  0
 15 16  1  0  0  0
 16 17  2  0  0  0
 16  1  1  0  0  0
  8  3  1  0  0  0
 40 35  1  0  0  0
 15  9  1  0  0  0
 27 18  1  0  0  0
 27 22  1  0  0  0
 30 33  1  0  0  0
M  END
> <minimizedAffinity>
-8.37332

> <CNNscore>
0.3556265533

> <CNNaffinity>
6.7279081345

> <CNN_VS>
2.3926227093

> <CNNaffinity_variance>
0.1110836715

$$$$



 40 45  0  0  0  0  0  0  0  0999 V2000
   -7.3582   -2.4228  -22.6629 N   0  0  0  0  0  0  0  0  0  0  0  0
   -6.9053   -1.0071  -22.8647 C   0  0  0  0  0  0  0  0  0  0  0  0
   -7.9163    0.0819  -23.0691 C   0  0  0  0  0  0  0  0  0  0  0  0
   -8.8061    1.2701  -23.2843 C   0  0  0  0  0  0  0  0  0  0  0  0
   -9.9864    1.5459  -23.3694 O   0  0  0  0  0  0  0  0  0  0  0  0
   -7.9338    2.4805  -23.4394 N   0  0  0  0  0  0  0  0  0  0  0  0
   -6.5048    2.0403  -23.3200 C   0  0  0  0  0  0  0  0  0  0  0  0
   -6.4940    0.5579  -23.0911 C   0  0  0  0  0  0  0  0  0  0  0  0
   -9.3804   -0.2447  -23.0716 C   0  0  0  0  0  0  0  0  0  0  0  0
  -10.3914    0.8443  -23.2759 C   0  0  0  0  0  0  0  0  0  0  0  0
  -11.8554    0.5176  -23.2784 C   0  0  0  0  0  0  0  0  0  0  0  0
  -12.8665    1.6067  -23.4827 Cl  0  0  0  0  0  0  0  0  0  0  0  0
  -12.3083   -0.8980  -23.0765 C   0  0  0  0  0  0  0  0  0  0  0  0
  -11.2972   -1.9871  -22.8722 C   0  0  0  0  0  0  0  0  0  0  0  0
   -9.8333   -1.6604  -22.8697 C   0  0  0  0  0  0  0  0  0  0  0  0
   -8.8221   -2.7494  -22.6654 C   0  0  0  0  0  0  0  0  0  0  0  0
   -9.2751   -4.1651  -22.4635 O   0  0  0  0  0  0  0  0  0  0  0  0
   -8.4073    3.8845  -23.6729 C   0  0  0  0  0  0  0  0  0  0  0  0
   -7.9475    4.9910  -22.7705 C   0  0  0  0  0  0  0  0  0  0  0  0
   -8.4210    6.3950  -23.0040 N   0  0  0  0  0  0  0  0  0  0  0  0
   -9.3544    6.6925  -24.1398 C   0  0  0  0  0  0  0  0  0  0  0  0
   -9.8143    5.5860  -25.0422 C   0  0  0  0  0  0  0  0  0  0  0  0
  -10.7477    5.8836  -26.1782 C   0  0  0  0  0  0  0  0  0  0  0  0
  -11.2075    4.7771  -27.0805 C   0  0  0  0  0  0  0  0  0  0  0  0
  -10.7340    3.3731  -26.8470 C   0  0  0  0  0  0  0  0  0  0  0  0
   -9.8006    3.0755  -25.7111 C   0  0  0  0  0  0  0  0  0  0  0  0
   -9.3407    4.1820  -24.8087 C   0  0  0  0  0  0  0  0  0  0  0  0
   -6.3470   -3.5118  -22.4585 C   0  0  0  0  0  0  0  0  0  0  0  0
   -4.8713   -4.8374  -25.8958 C   0  0  0  0  0  0  0  0  0  0  0  0
   -5.2207   -3.9165  -24.7645 N   0  0  0  0  0  0  0  0  0  0  0  0
   -5.9977   -4.4327  -23.5899 C   0  0  0  0  0  0  0  0  0  0  0  0
   -6.4252   -5.8699  -23.5465 O   0  0  0  0  0  0  0  0  0  0  0  0
   -4.9401   -2.9733  -24.7930 H   0  0  0  0  0  0  0  0  0  0  0  0
   -5.2749   -0.2981  -22.9152 C   0  0  0  0  0  0  0  0  0  0  0  0
   -4.0489    0.2678  -22.2622 C   0  0  0  0  0  0  0  0  0  0  0  0
   -4.1323    0.8389  -20.8777 C   0  0  0  0  0  0  0  0  0  0  0  0
   -2.9061    1.4048  -20.2247 C   0  0  0  0  0  0  0  0  0  0  0  0
   -1.5967    1.3997  -20.9563 C   0  0  0  0  0  0  0  0  0  0  0  0
   -1.5132    0.8286  -22.3408 C   0  0  0  0  0  0  0  0  0  0  0  0
   -2.7393    0.2626  -22.9938 C   0  0  0  0  0  0  0  0  0  0  0  0
 29 30  1  0  0  0
 30 31  1  0  0  0
 31 32  2  0  0  0
 31 28  1  0  0  0
 28  1  1  0  0  0
  1  2  1  0  0  0
  3  2  1  0  0  0
  3  4  1  0  0  0
  4  5  2  0  0  0
  4  6  1  0  0  0
  6 18  1  0  0  0
 18 19  2  0  0  0
 19 20  1  0  0  0
 20 21  2  0  0  0
 21 22  1  0  0  0
 22 23  2  0  0  0
 23 24  1  0  0  0
 24 25  2  0  0  0
 25 26  1  0  0  0
 26 27  2  0  0  0
  6  7  1  0  0  0
  7  8  1  0  0  0
  8 34  1  0  0  0
 34 35  1  0  0  0
 35 36  2  0  0  0
 36 37  1  0  0  0
 37 38  2  0  0  0
 38 39  1  0  0  0
 39 40  2  0  0  0
  3  9  1  0  0  0
  9 10  2  0  0  0
 10 11  1  0  0  0
 11 12  1  0  0  0
 11 13  2  0  0  0
 13 14  1  0  0  0
 14 15  2  0  0  0
 15 16  1  0  0  0
 16 17  2  0  0  0
 16  1  1  0  0  0
  8  3  1  0  0  0
 40 35  1  0  0  0
 15  9  1  0  0  0
 27 18  1  0  0  0
 27 22  1  0  0  0
 30 33  1  0  0  0
M  END
> <minimizedAffinity>
-5.07611

> <CNNscore>
0.3393723369

> <CNNaffinity>
6.4035749435

> <CNN_VS>
2.1731960773

> <CNNaffinity_variance>
0.6023064852

$$$$



 40 45  0  0  0  0  0  0  0  0999 V2000
   -8.7374    2.5872  -24.1102 N   0  0  0  0  0  0  0  0  0  0  0  0
   -7.8699    1.3675  -24.2087 C   0  0  0  0  0  0  0  0  0  0  0  0
   -8.4665    0.0051  -24.0142 C   0  0  0  0  0  0  0  0  0  0  0  0
   -8.9191   -1.4149  -23.8443 C   0  0  0  0  0  0  0  0  0  0  0  0
   -9.9296   -2.0482  -23.6113 O   0  0  0  0  0  0  0  0  0  0  0  0
   -7.7264   -2.3064  -24.0250 N   0  0  0  0  0  0  0  0  0  0  0  0
   -6.5366   -1.4374  -24.3065 C   0  0  0  0  0  0  0  0  0  0  0  0
   -6.9940   -0.0089  -24.2998 C   0  0  0  0  0  0  0  0  0  0  0  0
   -9.9307   -0.1377  -23.7211 C   0  0  0  0  0  0  0  0  0  0  0  0
  -10.5273   -1.5001  -23.5266 C   0  0  0  0  0  0  0  0  0  0  0  0
  -11.9915   -1.6427  -23.2336 C   0  0  0  0  0  0  0  0  0  0  0  0
  -12.5882   -3.0052  -23.0391 Cl  0  0  0  0  0  0  0  0  0  0  0  0
  -12.8590   -0.4230  -23.1352 C   0  0  0  0  0  0  0  0  0  0  0  0
  -12.2624    0.9394  -23.3297 C   0  0  0  0  0  0  0  0  0  0  0  0
  -10.7982    1.0821  -23.6227 C   0  0  0  0  0  0  0  0  0  0  0  0
  -10.2015    2.4445  -23.8172 C   0  0  0  0  0  0  0  0  0  0  0  0
  -11.0691    3.6642  -23.7187 O   0  0  0  0  0  0  0  0  0  0  0  0
   -7.7240   -3.8039  -23.9392 C   0  0  0  0  0  0  0  0  0  0  0  0
   -7.1527   -4.4851  -22.7310 C   0  0  0  0  0  0  0  0  0  0  0  0
   -7.1503   -5.9826  -22.6452 N   0  0  0  0  0  0  0  0  0  0  0  0
   -7.7190   -6.7990  -23.7677 C   0  0  0  0  0  0  0  0  0  0  0  0
   -8.2903   -6.1179  -24.9759 C   0  0  0  0  0  0  0  0  0  0  0  0
   -8.8591   -6.9344  -26.0984 C   0  0  0  0  0  0  0  0  0  0  0  0
   -9.4303   -6.2531  -27.3066 C   0  0  0  0  0  0  0  0  0  0  0  0
   -9.4327   -4.7556  -27.3924 C   0  0  0  0  0  0  0  0  0  0  0  0
   -8.8639   -3.9392  -26.2699 C   0  0  0  0  0  0  0  0  0  0  0  0
   -8.2927   -4.6203  -25.0617 C   0  0  0  0  0  0  0  0  0  0  0  0
   -8.1407    3.9496  -24.3047 C   0  0  0  0  0  0  0  0  0  0  0  0
  -10.6324    6.3983  -26.1876 C   0  0  0  0  0  0  0  0  0  0  0  0
   -9.7436    5.2238  -25.9038 N   0  0  0  0  0  0  0  0  0  0  0  0
   -9.0296    5.1241  -24.5884 C   0  0  0  0  0  0  0  0  0  0  0  0
   -9.2044    6.1989  -23.5568 O   0  0  0  0  0  0  0  0  0  0  0  0
   -9.6288    4.5184  -26.5809 H   0  0  0  0  0  0  0  0  0  0  0  0
   -6.1305    1.1945  -24.5370 C   0  0  0  0  0  0  0  0  0  0  0  0
   -4.8919    1.4023  -23.7169 C   0  0  0  0  0  0  0  0  0  0  0  0
   -3.5922    0.7943  -24.1540 C   0  0  0  0  0  0  0  0  0  0  0  0
   -2.3536    1.0022  -23.3338 C   0  0  0  0  0  0  0  0  0  0  0  0
   -2.4148    1.8181  -22.0766 C   0  0  0  0  0  0  0  0  0  0  0  0
   -3.7144    2.4261  -21.6395 C   0  0  0  0  0  0  0  0  0  0  0  0
   -4.9531    2.2182  -22.4596 C   0  0  0  0  0  0  0  0  0  0  0  0
 29 30  1  0  0  0
 30 31  1  0  0  0
 31 32  2  0  0  0
 31 28  1  0  0  0
 28  1  1  0  0  0
  1  2  1  0  0  0
  3  2  1  0  0  0
  3  4  1  0  0  0
  4  5  2  0  0  0
  4  6  1  0  0  0
  6 18  1  0  0  0
 18 19  2  0  0  0
 19 20  1  0  0  0
 20 21  2  0  0  0
 21 22  1  0  0  0
 22 23  2  0  0  0
 23 24  1  0  0  0
 24 25  2  0  0  0
 25 26  1  0  0  0
 26 27  2  0  0  0
  6  7  1  0  0  0
  7  8  1  0  0  0
  8 34  1  0  0  0
 34 35  1  0  0  0
 35 36  2  0  0  0
 36 37  1  0  0  0
 37 38  2  0  0  0
 38 39  1  0  0  0
 39 40  2  0  0  0
  3  9  1  0  0  0
  9 10  2  0  0  0
 10 11  1  0  0  0
 11 12  1  0  0  0
 11 13  2  0  0  0
 13 14  1  0  0  0
 14 15  2  0  0  0
 15 16  1  0  0  0
 16 17  2  0  0  0
 16  1  1  0  0  0
  8  3  1  0  0  0
 40 35  1  0  0  0
 15  9  1  0  0  0
 27 18  1  0  0  0
 27 22  1  0  0  0
 30 33  1  0  0  0
M  END
> <minimizedAffinity>
-7.36795

> <CNNscore>
0.2537571192

> <CNNaffinity>
6.5793099403

> <CNN_VS>
1.6695467234

> <CNNaffinity_variance>
0.1471909434

$$$$



 40 45  0  0  0  0  0  0  0  0999 V2000
   -7.4692   -2.4390  -22.4387 N   0  0  0  0  0  0  0  0  0  0  0  0
   -8.2165   -1.3286  -23.1159 C   0  0  0  0  0  0  0  0  0  0  0  0
   -7.6706    0.0683  -23.0890 C   0  0  0  0  0  0  0  0  0  0  0  0
   -7.2509    1.5072  -23.1455 C   0  0  0  0  0  0  0  0  0  0  0  0
   -6.3508    2.2299  -22.7662 O   0  0  0  0  0  0  0  0  0  0  0  0
   -8.2897    2.2630  -23.9200 N   0  0  0  0  0  0  0  0  0  0  0  0
   -9.3514    1.2911  -24.3421 C   0  0  0  0  0  0  0  0  0  0  0  0
   -8.9688   -0.0653  -23.8285 C   0  0  0  0  0  0  0  0  0  0  0  0
   -6.3775    0.3548  -22.3848 C   0  0  0  0  0  0  0  0  0  0  0  0
   -5.8317    1.7517  -22.3578 C   0  0  0  0  0  0  0  0  0  0  0  0
   -4.5386    2.0381  -21.6537 C   0  0  0  0  0  0  0  0  0  0  0  0
   -3.9927    3.4350  -21.6267 Cl  0  0  0  0  0  0  0  0  0  0  0  0
   -3.7913    0.9277  -20.9765 C   0  0  0  0  0  0  0  0  0  0  0  0
   -4.3372   -0.4692  -21.0035 C   0  0  0  0  0  0  0  0  0  0  0  0
   -5.6302   -0.7556  -21.7076 C   0  0  0  0  0  0  0  0  0  0  0  0
   -6.1761   -2.1526  -21.7346 C   0  0  0  0  0  0  0  0  0  0  0  0
   -5.4289   -3.2630  -21.0574 O   0  0  0  0  0  0  0  0  0  0  0  0
   -8.2702    3.7326  -24.2197 C   0  0  0  0  0  0  0  0  0  0  0  0
   -6.9938    4.5089  -24.0838 C   0  0  0  0  0  0  0  0  0  0  0  0
   -6.9743    5.9785  -24.3835 N   0  0  0  0  0  0  0  0  0  0  0  0
   -8.2311    6.6718  -24.8192 C   0  0  0  0  0  0  0  0  0  0  0  0
   -9.5074    5.8956  -24.9551 C   0  0  0  0  0  0  0  0  0  0  0  0
  -10.7642    6.5890  -25.3907 C   0  0  0  0  0  0  0  0  0  0  0  0
  -12.0404    5.8126  -25.5266 C   0  0  0  0  0  0  0  0  0  0  0  0
  -12.0600    4.3430  -25.2269 C   0  0  0  0  0  0  0  0  0  0  0  0
  -10.8032    3.6497  -24.7913 C   0  0  0  0  0  0  0  0  0  0  0  0
   -9.5269    4.4260  -24.6553 C   0  0  0  0  0  0  0  0  0  0  0  0
   -8.0151   -3.8360  -22.4657 C   0  0  0  0  0  0  0  0  0  0  0  0
   -5.8822   -5.4252  -25.4110 C   0  0  0  0  0  0  0  0  0  0  0  0
   -6.4450   -4.4185  -24.4520 N   0  0  0  0  0  0  0  0  0  0  0  0
   -7.4523   -4.8427  -23.4247 C   0  0  0  0  0  0  0  0  0  0  0  0
   -7.8968   -6.2738  -23.3564 O   0  0  0  0  0  0  0  0  0  0  0  0
   -6.1532   -3.4793  -24.4968 H   0  0  0  0  0  0  0  0  0  0  0  0
   -9.7477   -1.3328  -24.0207 C   0  0  0  0  0  0  0  0  0  0  0  0
  -11.1679   -1.4196  -23.5463 C   0  0  0  0  0  0  0  0  0  0  0  0
  -12.1598   -0.3701  -23.9521 C   0  0  0  0  0  0  0  0  0  0  0  0
  -13.5801   -0.4569  -23.4776 C   0  0  0  0  0  0  0  0  0  0  0  0
  -14.0086   -1.5934  -22.5973 C   0  0  0  0  0  0  0  0  0  0  0  0
  -13.0168   -2.6429  -22.1914 C   0  0  0  0  0  0  0  0  0  0  0  0
  -11.5964   -2.5561  -22.6659 C   0  0  0  0  0  0  0  0  0  0  0  0
 29 30  1  0  0  0
 30 31  1  0  0  0
 31 32  2  0  0  0
 31 28  1  0  0  0
 28  1  1  0  0  0
  1  2  1  0  0  0
  3  2  1  0  0  0
  3  4  1  0  0  0
  4  5  2  0  0  0
  4  6  1  0  0  0
  6 18  1  0  0  0
 18 19  2  0  0  0
 19 20  1  0  0  0
 20 21  2  0  0  0
 21 22  1  0  0  0
 22 23  2  0  0  0
 23 24  1  0  0  0
 24 25  2  0  0  0
 25 26  1  0  0  0
 26 27  2  0  0  0
  6  7  1  0  0  0
  7  8  1  0  0  0
  8 34  1  0  0  0
 34 35  1  0  0  0
 35 36  2  0  0  0
 36 37  1  0  0  0
 37 38  2  0  0  0
 38 39  1  0  0  0
 39 40  2  0  0  0
  3  9  1  0  0  0
  9 10  2  0  0  0
 10 11  1  0  0  0
 11 12  1  0  0  0
 11 13  2  0  0  0
 13 14  1  0  0  0
 14 15  2  0  0  0
 15 16  1  0  0  0
 16 17  2  0  0  0
 16  1  1  0  0  0
  8  3  1  0  0  0
 40 35  1  0  0  0
 15  9  1  0  0  0
 27 18  1  0  0  0
 27 22  1  0  0  0
 30 33  1  0  0  0
M  END
> <minimizedAffinity>
-7.63827

> <CNNscore>
0.2425568849

> <CNNaffinity>
6.6234216690

> <CNN_VS>
1.6065565348

> <CNNaffinity_variance>
0.0942213982

$$$$



 40 45  0  0  0  0  0  0  0  0999 V2000
   -7.6314    0.6047  -23.7061 N   0  0  0  0  0  0  0  0  0  0  0  0
   -6.4403    0.0112  -24.3983 C   0  0  0  0  0  0  0  0  0  0  0  0
   -6.4807   -1.4108  -24.8738 C   0  0  0  0  0  0  0  0  0  0  0  0
   -6.3746   -2.8109  -25.4015 C   0  0  0  0  0  0  0  0  0  0  0  0
   -7.0352   -3.8274  -25.4831 O   0  0  0  0  0  0  0  0  0  0  0  0
   -5.0149   -2.9738  -26.0136 N   0  0  0  0  0  0  0  0  0  0  0  0
   -4.2806   -1.6744  -25.8643 C   0  0  0  0  0  0  0  0  0  0  0  0
   -5.1865   -0.7084  -25.1598 C   0  0  0  0  0  0  0  0  0  0  0  0
   -7.7121   -2.2395  -24.6571 C   0  0  0  0  0  0  0  0  0  0  0  0
   -7.7525   -3.6615  -25.1325 C   0  0  0  0  0  0  0  0  0  0  0  0
   -8.9839   -4.4901  -24.9158 C   0  0  0  0  0  0  0  0  0  0  0  0
   -9.0243   -5.9123  -25.3912 Cl  0  0  0  0  0  0  0  0  0  0  0  0
  -10.1750   -3.8966  -24.2236 C   0  0  0  0  0  0  0  0  0  0  0  0
  -10.1346   -2.4746  -23.7481 C   0  0  0  0  0  0  0  0  0  0  0  0
   -8.9032   -1.6460  -23.9649 C   0  0  0  0  0  0  0  0  0  0  0  0
   -8.8628   -0.2239  -23.4894 C   0  0  0  0  0  0  0  0  0  0  0  0
  -10.0539    0.3696  -22.7972 O   0  0  0  0  0  0  0  0  0  0  0  0
   -4.4829   -4.2178  -26.6614 C   0  0  0  0  0  0  0  0  0  0  0  0
   -3.9682   -4.1688  -28.0695 C   0  0  0  0  0  0  0  0  0  0  0  0
   -3.4362   -5.4127  -28.7173 N   0  0  0  0  0  0  0  0  0  0  0  0
   -3.4189   -6.7056  -27.9570 C   0  0  0  0  0  0  0  0  0  0  0  0
   -3.9337   -6.7546  -26.5489 C   0  0  0  0  0  0  0  0  0  0  0  0
   -3.9164   -8.0476  -25.7885 C   0  0  0  0  0  0  0  0  0  0  0  0
   -4.4311   -8.0964  -24.3805 C   0  0  0  0  0  0  0  0  0  0  0  0
   -4.9631   -6.8525  -23.7327 C   0  0  0  0  0  0  0  0  0  0  0  0
   -4.9804   -5.5596  -24.4930 C   0  0  0  0  0  0  0  0  0  0  0  0
   -4.4656   -5.5107  -25.9011 C   0  0  0  0  0  0  0  0  0  0  0  0
   -7.5910    2.0268  -23.2307 C   0  0  0  0  0  0  0  0  0  0  0  0
   -8.9489    3.9659  -26.4159 C   0  0  0  0  0  0  0  0  0  0  0  0
   -8.6204    2.8492  -25.4699 N   0  0  0  0  0  0  0  0  0  0  0  0
   -7.9195    3.1435  -24.1768 C   0  0  0  0  0  0  0  0  0  0  0  0
   -7.5472    4.5546  -23.8297 O   0  0  0  0  0  0  0  0  0  0  0  0
   -8.8648    1.9232  -25.6976 H   0  0  0  0  0  0  0  0  0  0  0  0
   -4.8562    0.7108  -24.8038 C   0  0  0  0  0  0  0  0  0  0  0  0
   -3.4382    1.1933  -24.8829 C   0  0  0  0  0  0  0  0  0  0  0  0
   -2.7402    1.6761  -23.6461 C   0  0  0  0  0  0  0  0  0  0  0  0
   -1.3221    2.1587  -23.7252 C   0  0  0  0  0  0  0  0  0  0  0  0
   -0.6021    2.1584  -25.0410 C   0  0  0  0  0  0  0  0  0  0  0  0
   -1.3000    1.6757  -26.2778 C   0  0  0  0  0  0  0  0  0  0  0  0
   -2.7182    1.1931  -26.1988 C   0  0  0  0  0  0  0  0  0  0  0  0
 29 30  1  0  0  0
 30 31  1  0  0  0
 31 32  2  0  0  0
 31 28  1  0  0  0
 28  1  1  0  0  0
  1  2  1  0  0  0
  3  2  1  0  0  0
  3  4  1  0  0  0
  4  5  2  0  0  0
  4  6  1  0  0  0
  6 18  1  0  0  0
 18 19  2  0  0  0
 19 20  1  0  0  0
 20 21  2  0  0  0
 21 22  1  0  0  0
 22 23  2  0  0  0
 23 24  1  0  0  0
 24 25  2  0  0  0
 25 26  1  0  0  0
 26 27  2  0  0  0
  6  7  1  0  0  0
  7  8  1  0  0  0
  8 34  1  0  0  0
 34 35  1  0  0  0
 35 36  2  0  0  0
 36 37  1  0  0  0
 37 38  2  0  0  0
 38 39  1  0  0  0
 39 40  2  0  0  0
  3  9  1  0  0  0
  9 10  2  0  0  0
 10 11  1  0  0  0
 11 12  1  0  0  0
 11 13  2  0  0  0
 13 14  1  0  0  0
 14 15  2  0  0  0
 15 16  1  0  0  0
 16 17  2  0  0  0
 16  1  1  0  0  0
  8  3  1  0  0  0
 40 35  1  0  0  0
 15  9  1  0  0  0
 27 18  1  0  0  0
 27 22  1  0  0  0
 30 33  1  0  0  0
M  END
> <minimizedAffinity>
-4.54226

> <CNNscore>
0.2336364090

> <CNNaffinity>
6.1712393761

> <CNN_VS>
1.4418262243

> <CNNaffinity_variance>
0.8823937178

$$$$
