


 42 47  0  0  0  0  0  0  0  0999 V2000
   10.1353    0.3758   22.9313 N   0  0  0  0  0  0  0  0  0  0  0  0
    8.9444   -0.5225   22.7737 C   0  0  0  0  0  0  0  0  0  0  0  0
    8.8615   -1.8017   23.5525 C   0  0  0  0  0  0  0  0  0  0  0  0
    8.6403   -3.1051   24.2611 C   0  0  0  0  0  0  0  0  0  0  0  0
    9.1858   -3.8290   25.0703 O   0  0  0  0  0  0  0  0  0  0  0  0
    7.3247   -3.6632   23.8052 N   0  0  0  0  0  0  0  0  0  0  0  0
    6.7328   -2.7047   22.8148 C   0  0  0  0  0  0  0  0  0  0  0  0
    7.6826   -1.5542   22.6587 C   0  0  0  0  0  0  0  0  0  0  0  0
    9.9696   -2.1827   24.4891 C   0  0  0  0  0  0  0  0  0  0  0  0
    9.8867   -3.4620   25.2679 C   0  0  0  0  0  0  0  0  0  0  0  0
   10.9947   -3.8429   26.2044 C   0  0  0  0  0  0  0  0  0  0  0  0
   10.9119   -5.1222   26.9833 Cl  0  0  0  0  0  0  0  0  0  0  0  0
   12.1857   -2.9447   26.3620 C   0  0  0  0  0  0  0  0  0  0  0  0
   12.2686   -1.6655   25.5831 C   0  0  0  0  0  0  0  0  0  0  0  0
   11.1605   -1.2845   24.6467 C   0  0  0  0  0  0  0  0  0  0  0  0
   11.2434   -0.0052   23.8677 C   0  0  0  0  0  0  0  0  0  0  0  0
   12.4343    0.8930   24.0253 O   0  0  0  0  0  0  0  0  0  0  0  0
    6.7092   -4.9533   24.2598 C   0  0  0  0  0  0  0  0  0  0  0  0
    7.2258   -6.2584   23.7307 C   0  0  0  0  0  0  0  0  0  0  0  0
    6.6103   -7.5485   24.1854 N   0  0  0  0  0  0  0  0  0  0  0  0
    5.4781   -7.5335   25.1691 C   0  0  0  0  0  0  0  0  0  0  0  0
    4.9614   -6.2285   25.6983 C   0  0  0  0  0  0  0  0  0  0  0  0
    3.8291   -6.2136   26.6821 C   0  0  0  0  0  0  0  0  0  0  0  0
    3.3125   -4.9085   27.2112 C   0  0  0  0  0  0  0  0  0  0  0  0
    3.9281   -3.6184   26.7565 C   0  0  0  0  0  0  0  0  0  0  0  0
    5.0603   -3.6334   25.7727 C   0  0  0  0  0  0  0  0  0  0  0  0
    5.5770   -4.9384   25.2436 C   0  0  0  0  0  0  0  0  0  0  0  0
   10.2181    1.6550   22.1523 C   0  0  0  0  0  0  0  0  0  0  0  0
    8.0651    4.7917   23.2817 C   0  0  0  0  0  0  0  0  0  0  0  0
    9.1812    3.7926   23.2037 N   0  0  0  0  0  0  0  0  0  0  0  0
    9.1020    2.6542   22.2303 C   0  0  0  0  0  0  0  0  0  0  0  0
    7.9068    2.5148   21.3347 O   0  0  0  0  0  0  0  0  0  0  0  0
    9.9656    3.8840   23.7915 H   0  0  0  0  0  0  0  0  0  0  0  0
    7.4877   -0.3650   21.7655 C   0  0  0  0  0  0  0  0  0  0  0  0
    7.2686   -0.5597   20.2945 N   0  0  0  0  0  0  0  0  0  0  0  0
    7.8462   -1.1755   19.7881 H   0  0  0  0  0  0  0  0  0  0  0  0
    6.1696    0.1837   19.5949 C   0  0  0  0  0  0  0  0  0  0  0  0
    5.0164    0.7325   20.3816 C   0  0  0  0  0  0  0  0  0  0  0  0
    3.9174    1.4759   19.6821 N   0  0  0  0  0  0  0  0  0  0  0  0
    3.9715    1.6706   18.1957 C   0  0  0  0  0  0  0  0  0  0  0  0
    5.1247    1.1217   17.4090 C   0  0  0  0  0  0  0  0  0  0  0  0
    6.2237    0.3783   18.1086 N   0  0  0  0  0  0  0  0  0  0  0  0
 29 30  1  0  0  0
 30 31  1  0  0  0
 31 32  2  0  0  0
 31 28  1  0  0  0
 28  1  1  0  0  0
  1  2  1  0  0  0
  3  2  1  0  0  0
  3  4  1  0  0  0
  4  5  2  0  0  0
  4  6  1  0  0  0
  6 18  1  0  0  0
 18 19  2  0  0  0
 19 20  1  0  0  0
 20 21  2  0  0  0
 21 22  1  0  0  0
 22 23  2  0  0  0
 23 24  1  0  0  0
 24 25  2  0  0  0
 25 26  1  0  0  0
 26 27  2  0  0  0
  6  7  1  0  0  0
  7  8  1  0  0  0
  8 34  1  0  0  0
 34 35  1  0  0  0
 35 37  1  0  0  0
 37 38  2  0  0  0
 38 39  1  0  0  0
 39 40  2  0  0  0
 40 41  1  0  0  0
 41 42  2  0  0  0
  3  9  1  0  0  0
  9 10  2  0  0  0
 10 11  1  0  0  0
 11 12  1  0  0  0
 11 13  2  0  0  0
 13 14  1  0  0  0
 14 15  2  0  0  0
 15 16  1  0  0  0
 16 17  2  0  0  0
 16  1  1  0  0  0
  8  3  1  0  0  0
 42 37  1  0  0  0
 15  9  1  0  0  0
 27 18  1  0  0  0
 27 22  1  0  0  0
 30 33  1  0  0  0
 35 36  1  0  0  0
M  END
> <minimizedAffinity>
-9.44626

> <CNNscore>
0.5577023029

> <CNNaffinity>
7.3388543129

> <CNN_VS>
4.0928959846

> <CNNaffinity_variance>
0.0910190642

$$$$



 42 47  0  0  0  0  0  0  0  0999 V2000
    6.9449   -3.5431   23.5411 N   0  0  0  0  0  0  0  0  0  0  0  0
    7.1363   -2.1519   23.0140 C   0  0  0  0  0  0  0  0  0  0  0  0
    8.3916   -1.3952   23.3328 C   0  0  0  0  0  0  0  0  0  0  0  0
    9.5873   -0.5203   23.5670 C   0  0  0  0  0  0  0  0  0  0  0  0
   10.6585   -0.5419   24.1402 O   0  0  0  0  0  0  0  0  0  0  0  0
    9.3556    0.7810   22.8579 N   0  0  0  0  0  0  0  0  0  0  0  0
    8.0166    0.7105   22.1855 C   0  0  0  0  0  0  0  0  0  0  0  0
    7.4209   -0.6345   22.4790 C   0  0  0  0  0  0  0  0  0  0  0  0
    9.4555   -2.0297   24.1788 C   0  0  0  0  0  0  0  0  0  0  0  0
   10.7107   -1.2730   24.4976 C   0  0  0  0  0  0  0  0  0  0  0  0
   11.7746   -1.9075   25.3435 C   0  0  0  0  0  0  0  0  0  0  0  0
   13.0299   -1.1508   25.6623 Cl  0  0  0  0  0  0  0  0  0  0  0  0
   11.5832   -3.2987   25.8705 C   0  0  0  0  0  0  0  0  0  0  0  0
   10.3279   -4.0554   25.5517 C   0  0  0  0  0  0  0  0  0  0  0  0
    9.2641   -3.4209   24.7058 C   0  0  0  0  0  0  0  0  0  0  0  0
    8.0088   -4.1777   24.3870 C   0  0  0  0  0  0  0  0  0  0  0  0
    7.8174   -5.5689   24.9141 O   0  0  0  0  0  0  0  0  0  0  0  0
   10.2975    1.9480   22.8268 C   0  0  0  0  0  0  0  0  0  0  0  0
   11.7675    1.7204   22.6338 C   0  0  0  0  0  0  0  0  0  0  0  0
   12.7094    2.8874   22.6026 N   0  0  0  0  0  0  0  0  0  0  0  0
   12.1813    4.2820   22.7645 C   0  0  0  0  0  0  0  0  0  0  0  0
   10.7112    4.5096   22.9576 C   0  0  0  0  0  0  0  0  0  0  0  0
   10.1831    5.9042   23.1195 C   0  0  0  0  0  0  0  0  0  0  0  0
    8.7130    6.1317   23.3125 C   0  0  0  0  0  0  0  0  0  0  0  0
    7.7712    4.9647   23.3436 C   0  0  0  0  0  0  0  0  0  0  0  0
    8.2993    3.5701   23.1817 C   0  0  0  0  0  0  0  0  0  0  0  0
    9.7693    3.3426   22.9887 C   0  0  0  0  0  0  0  0  0  0  0  0
    5.6896   -4.2999   23.2222 C   0  0  0  0  0  0  0  0  0  0  0  0
    4.4670   -7.5485   25.1461 C   0  0  0  0  0  0  0  0  0  0  0  0
    5.0976   -6.6699   24.1067 N   0  0  0  0  0  0  0  0  0  0  0  0
    5.0590   -5.1785   24.2617 C   0  0  0  0  0  0  0  0  0  0  0  0
    4.3899   -4.5656   25.4561 O   0  0  0  0  0  0  0  0  0  0  0  0
    5.5367   -7.0722   23.3227 H   0  0  0  0  0  0  0  0  0  0  0  0
    6.0883   -1.1315   22.0023 C   0  0  0  0  0  0  0  0  0  0  0  0
    5.0250   -0.1547   21.5960 N   0  0  0  0  0  0  0  0  0  0  0  0
    4.3727    0.1671   22.2596 H   0  0  0  0  0  0  0  0  0  0  0  0
    4.9555    0.3321   20.1789 C   0  0  0  0  0  0  0  0  0  0  0  0
    5.9538   -0.1525   19.1696 C   0  0  0  0  0  0  0  0  0  0  0  0
    5.8843    0.3341   17.7526 N   0  0  0  0  0  0  0  0  0  0  0  0
    4.8164    1.3055   17.3446 C   0  0  0  0  0  0  0  0  0  0  0  0
    3.8182    1.7900   18.3539 C   0  0  0  0  0  0  0  0  0  0  0  0
    3.8877    1.3033   19.7710 N   0  0  0  0  0  0  0  0  0  0  0  0
 29 30  1  0  0  0
 30 31  1  0  0  0
 31 32  2  0  0  0
 31 28  1  0  0  0
 28  1  1  0  0  0
  1  2  1  0  0  0
  3  2  1  0  0  0
  3  4  1  0  0  0
  4  5  2  0  0  0
  4  6  1  0  0  0
  6 18  1  0  0  0
 18 19  2  0  0  0
 19 20  1  0  0  0
 20 21  2  0  0  0
 21 22  1  0  0  0
 22 23  2  0  0  0
 23 24  1  0  0  0
 24 25  2  0  0  0
 25 26  1  0  0  0
 26 27  2  0  0  0
  6  7  1  0  0  0
  7  8  1  0  0  0
  8 34  1  0  0  0
 34 35  1  0  0  0
 35 37  1  0  0  0
 37 38  2  0  0  0
 38 39  1  0  0  0
 39 40  2  0  0  0
 40 41  1  0  0  0
 41 42  2  0  0  0
  3  9  1  0  0  0
  9 10  2  0  0  0
 10 11  1  0  0  0
 11 12  1  0  0  0
 11 13  2  0  0  0
 13 14  1  0  0  0
 14 15  2  0  0  0
 15 16  1  0  0  0
 16 17  2  0  0  0
 16  1  1  0  0  0
  8  3  1  0  0  0
 42 37  1  0  0  0
 15  9  1  0  0  0
 27 18  1  0  0  0
 27 22  1  0  0  0
 30 33  1  0  0  0
 35 36  1  0  0  0
M  END
> <minimizedAffinity>
-8.84399

> <CNNscore>
0.3603089154

> <CNNaffinity>
7.0714960098

> <CNN_VS>
2.5479230881

> <CNNaffinity_variance>
0.0954125449

$$$$



 42 47  0  0  0  0  0  0  0  0999 V2000
    9.5650    0.5089   23.1174 N   0  0  0  0  0  0  0  0  0  0  0  0
    8.3852   -0.4145   23.0441 C   0  0  0  0  0  0  0  0  0  0  0  0
    8.3981   -1.7094   23.8010 C   0  0  0  0  0  0  0  0  0  0  0  0
    8.2677   -3.0305   24.4993 C   0  0  0  0  0  0  0  0  0  0  0  0
    8.8968   -3.7559   25.2439 O   0  0  0  0  0  0  0  0  0  0  0  0
    6.9306   -3.6115   24.1464 N   0  0  0  0  0  0  0  0  0  0  0  0
    6.2345   -2.6493   23.2300 C   0  0  0  0  0  0  0  0  0  0  0  0
    7.1415   -1.4738   23.0166 C   0  0  0  0  0  0  0  0  0  0  0  0
    9.5908   -2.0810   24.6313 C   0  0  0  0  0  0  0  0  0  0  0  0
    9.6037   -3.3759   25.3883 C   0  0  0  0  0  0  0  0  0  0  0  0
   10.7965   -3.7474   26.2185 C   0  0  0  0  0  0  0  0  0  0  0  0
   10.8094   -5.0423   26.9755 Cl  0  0  0  0  0  0  0  0  0  0  0  0
   11.9763   -2.8240   26.2919 C   0  0  0  0  0  0  0  0  0  0  0  0
   11.9633   -1.5290   25.5349 C   0  0  0  0  0  0  0  0  0  0  0  0
   10.7706   -1.1575   24.7047 C   0  0  0  0  0  0  0  0  0  0  0  0
   10.7577    0.1374   23.9477 C   0  0  0  0  0  0  0  0  0  0  0  0
   11.9375    1.0608   24.0210 O   0  0  0  0  0  0  0  0  0  0  0  0
    6.3853   -4.9240   24.6257 C   0  0  0  0  0  0  0  0  0  0  0  0
    6.8509   -6.2041   23.9973 C   0  0  0  0  0  0  0  0  0  0  0  0
    6.3056   -7.5166   24.4767 N   0  0  0  0  0  0  0  0  0  0  0  0
    5.2947   -7.5492   25.5844 C   0  0  0  0  0  0  0  0  0  0  0  0
    4.8291   -6.2692   26.2127 C   0  0  0  0  0  0  0  0  0  0  0  0
    3.8181   -6.3018   27.3205 C   0  0  0  0  0  0  0  0  0  0  0  0
    3.3526   -5.0217   27.9488 C   0  0  0  0  0  0  0  0  0  0  0  0
    3.8979   -3.7092   27.4694 C   0  0  0  0  0  0  0  0  0  0  0  0
    4.9088   -3.6766   26.3617 C   0  0  0  0  0  0  0  0  0  0  0  0
    5.3744   -4.9566   25.7334 C   0  0  0  0  0  0  0  0  0  0  0  0
    9.5520    1.8039   22.3604 C   0  0  0  0  0  0  0  0  0  0  0  0
   11.6198    5.1320   22.9911 C   0  0  0  0  0  0  0  0  0  0  0  0
   10.4653    4.1818   22.8715 N   0  0  0  0  0  0  0  0  0  0  0  0
   10.7065    2.7541   22.4800 C   0  0  0  0  0  0  0  0  0  0  0  0
   12.1022    2.2765   22.2080 O   0  0  0  0  0  0  0  0  0  0  0  0
    9.5493    4.4953   23.0500 H   0  0  0  0  0  0  0  0  0  0  0  0
    6.8440   -0.2734   22.1677 C   0  0  0  0  0  0  0  0  0  0  0  0
    5.4575   -0.0533   21.6394 N   0  0  0  0  0  0  0  0  0  0  0  0
    4.6806   -0.1678   22.2332 H   0  0  0  0  0  0  0  0  0  0  0  0
    5.2546    0.3413   20.2066 C   0  0  0  0  0  0  0  0  0  0  0  0
    6.1797   -0.1797   19.1470 C   0  0  0  0  0  0  0  0  0  0  0  0
    5.9768    0.2148   17.7142 N   0  0  0  0  0  0  0  0  0  0  0  0
    4.8488    1.1304   17.3408 C   0  0  0  0  0  0  0  0  0  0  0  0
    3.9237    1.6514   18.4004 C   0  0  0  0  0  0  0  0  0  0  0  0
    4.1266    1.2568   19.8333 N   0  0  0  0  0  0  0  0  0  0  0  0
 29 30  1  0  0  0
 30 31  1  0  0  0
 31 32  2  0  0  0
 31 28  1  0  0  0
 28  1  1  0  0  0
  1  2  1  0  0  0
  3  2  1  0  0  0
  3  4  1  0  0  0
  4  5  2  0  0  0
  4  6  1  0  0  0
  6 18  1  0  0  0
 18 19  2  0  0  0
 19 20  1  0  0  0
 20 21  2  0  0  0
 21 22  1  0  0  0
 22 23  2  0  0  0
 23 24  1  0  0  0
 24 25  2  0  0  0
 25 26  1  0  0  0
 26 27  2  0  0  0
  6  7  1  0  0  0
  7  8  1  0  0  0
  8 34  1  0  0  0
 34 35  1  0  0  0
 35 37  1  0  0  0
 37 38  2  0  0  0
 38 39  1  0  0  0
 39 40  2  0  0  0
 40 41  1  0  0  0
 41 42  2  0  0  0
  3  9  1  0  0  0
  9 10  2  0  0  0
 10 11  1  0  0  0
 11 12  1  0  0  0
 11 13  2  0  0  0
 13 14  1  0  0  0
 14 15  2  0  0  0
 15 16  1  0  0  0
 16 17  2  0  0  0
 16  1  1  0  0  0
  8  3  1  0  0  0
 42 37  1  0  0  0
 15  9  1  0  0  0
 27 18  1  0  0  0
 27 22  1  0  0  0
 30 33  1  0  0  0
 35 36  1  0  0  0
M  END
> <minimizedAffinity>
-9.18660

> <CNNscore>
0.3082543314

> <CNNaffinity>
7.0836386681

> <CNN_VS>
2.1835622787

> <CNNaffinity_variance>
0.0501259752

$$$$



 42 47  0  0  0  0  0  0  0  0999 V2000
    5.1587    1.3107   21.5558 N   0  0  0  0  0  0  0  0  0  0  0  0
    6.0454    0.1256   21.7994 C   0  0  0  0  0  0  0  0  0  0  0  0
    7.4585    0.3282   22.2598 C   0  0  0  0  0  0  0  0  0  0  0  0
    8.8856    0.3745   22.7193 C   0  0  0  0  0  0  0  0  0  0  0  0
    9.7405    1.1834   23.0215 O   0  0  0  0  0  0  0  0  0  0  0  0
    9.3829   -1.0364   22.8301 N   0  0  0  0  0  0  0  0  0  0  0  0
    8.2631   -1.9546   22.4391 C   0  0  0  0  0  0  0  0  0  0  0  0
    7.0738   -1.1112   22.0866 C   0  0  0  0  0  0  0  0  0  0  0  0
    7.9850    1.7160   22.4767 C   0  0  0  0  0  0  0  0  0  0  0  0
    9.3981    1.9187   22.9371 C   0  0  0  0  0  0  0  0  0  0  0  0
    9.9245    3.3064   23.1540 C   0  0  0  0  0  0  0  0  0  0  0  0
   11.3377    3.5091   23.6144 Cl  0  0  0  0  0  0  0  0  0  0  0  0
    9.0378    4.4915   22.9104 C   0  0  0  0  0  0  0  0  0  0  0  0
    7.6247    4.2888   22.4500 C   0  0  0  0  0  0  0  0  0  0  0  0
    7.0983    2.9011   22.2331 C   0  0  0  0  0  0  0  0  0  0  0  0
    5.6851    2.6984   21.7727 C   0  0  0  0  0  0  0  0  0  0  0  0
    4.7984    3.8835   21.5291 O   0  0  0  0  0  0  0  0  0  0  0  0
   10.7585   -1.4554   23.2570 C   0  0  0  0  0  0  0  0  0  0  0  0
   11.9443   -1.1182   22.4025 C   0  0  0  0  0  0  0  0  0  0  0  0
   13.3199   -1.5372   22.8294 N   0  0  0  0  0  0  0  0  0  0  0  0
   13.5096   -2.2934   24.1108 C   0  0  0  0  0  0  0  0  0  0  0  0
   12.3238   -2.6306   24.9654 C   0  0  0  0  0  0  0  0  0  0  0  0
   12.5136   -3.3868   26.2469 C   0  0  0  0  0  0  0  0  0  0  0  0
   11.3278   -3.7240   27.1014 C   0  0  0  0  0  0  0  0  0  0  0  0
    9.9522   -3.3049   26.6745 C   0  0  0  0  0  0  0  0  0  0  0  0
    9.7625   -2.5487   25.3930 C   0  0  0  0  0  0  0  0  0  0  0  0
   10.9483   -2.2116   24.5385 C   0  0  0  0  0  0  0  0  0  0  0  0
    3.7455    1.1080   21.0954 C   0  0  0  0  0  0  0  0  0  0  0  0
    1.5103    3.9711   19.4965 C   0  0  0  0  0  0  0  0  0  0  0  0
    2.1106    3.0397   20.5075 N   0  0  0  0  0  0  0  0  0  0  0  0
    3.1453    2.0395   20.0844 C   0  0  0  0  0  0  0  0  0  0  0  0
    3.5797    1.9707   18.6503 O   0  0  0  0  0  0  0  0  0  0  0  0
    1.8255    3.0848   21.4487 H   0  0  0  0  0  0  0  0  0  0  0  0
    5.7348   -1.6183   21.6395 C   0  0  0  0  0  0  0  0  0  0  0  0
    5.0295   -2.6761   22.4352 N   0  0  0  0  0  0  0  0  0  0  0  0
    4.1793   -2.4681   22.8860 H   0  0  0  0  0  0  0  0  0  0  0  0
    5.6193   -4.0510   22.5441 C   0  0  0  0  0  0  0  0  0  0  0  0
    6.3243   -4.4672   23.8010 C   0  0  0  0  0  0  0  0  0  0  0  0
    6.9141   -5.8420   23.9100 N   0  0  0  0  0  0  0  0  0  0  0  0
    6.7990   -6.8007   22.7620 C   0  0  0  0  0  0  0  0  0  0  0  0
    6.0940   -6.3845   21.5051 C   0  0  0  0  0  0  0  0  0  0  0  0
    5.5042   -5.0096   21.3962 N   0  0  0  0  0  0  0  0  0  0  0  0
 29 30  1  0  0  0
 30 31  1  0  0  0
 31 32  2  0  0  0
 31 28  1  0  0  0
 28  1  1  0  0  0
  1  2  1  0  0  0
  3  2  1  0  0  0
  3  4  1  0  0  0
  4  5  2  0  0  0
  4  6  1  0  0  0
  6 18  1  0  0  0
 18 19  2  0  0  0
 19 20  1  0  0  0
 20 21  2  0  0  0
 21 22  1  0  0  0
 22 23  2  0  0  0
 23 24  1  0  0  0
 24 25  2  0  0  0
 25 26  1  0  0  0
 26 27  2  0  0  0
  6  7  1  0  0  0
  7  8  1  0  0  0
  8 34  1  0  0  0
 34 35  1  0  0  0
 35 37  1  0  0  0
 37 38  2  0  0  0
 38 39  1  0  0  0
 39 40  2  0  0  0
 40 41  1  0  0  0
 41 42  2  0  0  0
  3  9  1  0  0  0
  9 10  2  0  0  0
 10 11  1  0  0  0
 11 12  1  0  0  0
 11 13  2  0  0  0
 13 14  1  0  0  0
 14 15  2  0  0  0
 15 16  1  0  0  0
 16 17  2  0  0  0
 16  1  1  0  0  0
  8  3  1  0  0  0
 42 37  1  0  0  0
 15  9  1  0  0  0
 27 18  1  0  0  0
 27 22  1  0  0  0
 30 33  1  0  0  0
 35 36  1  0  0  0
M  END
> <minimizedAffinity>
-7.90130

> <CNNscore>
0.2536056042

> <CNNaffinity>
6.9787826538

> <CNN_VS>
1.7698583603

> <CNNaffinity_variance>
0.0496391170

$$$$



 42 47  0  0  0  0  0  0  0  0999 V2000
    8.3691    4.6602   23.3251 N   0  0  0  0  0  0  0  0  0  0  0  0
    7.5533    3.4219   23.5509 C   0  0  0  0  0  0  0  0  0  0  0  0
    8.2039    2.0722   23.4817 C   0  0  0  0  0  0  0  0  0  0  0  0
    8.7132    0.6618   23.4444 C   0  0  0  0  0  0  0  0  0  0  0  0
    9.7470    0.0500   23.2618 O   0  0  0  0  0  0  0  0  0  0  0  0
    7.5596   -0.2552   23.7241 N   0  0  0  0  0  0  0  0  0  0  0  0
    6.3372    0.5884   23.9343 C   0  0  0  0  0  0  0  0  0  0  0  0
    6.7355    2.0268   23.7845 C   0  0  0  0  0  0  0  0  0  0  0  0
    9.6704    1.9607   23.1868 C   0  0  0  0  0  0  0  0  0  0  0  0
   10.3210    0.6109   23.1177 C   0  0  0  0  0  0  0  0  0  0  0  0
   11.7875    0.4995   22.8228 C   0  0  0  0  0  0  0  0  0  0  0  0
   12.4382   -0.8503   22.7537 Cl  0  0  0  0  0  0  0  0  0  0  0  0
   12.6034    1.7378   22.5971 C   0  0  0  0  0  0  0  0  0  0  0  0
   11.9528    3.0875   22.6662 C   0  0  0  0  0  0  0  0  0  0  0  0
   10.4863    3.1990   22.9611 C   0  0  0  0  0  0  0  0  0  0  0  0
    9.8356    4.5488   23.0302 C   0  0  0  0  0  0  0  0  0  0  0  0
   10.6515    5.7871   22.8044 O   0  0  0  0  0  0  0  0  0  0  0  0
    7.6180   -1.7529   23.7832 C   0  0  0  0  0  0  0  0  0  0  0  0
    6.6905   -2.5737   22.9370 C   0  0  0  0  0  0  0  0  0  0  0  0
    6.7490   -4.0714   22.9961 N   0  0  0  0  0  0  0  0  0  0  0  0
    7.7349   -4.7483   23.9014 C   0  0  0  0  0  0  0  0  0  0  0  0
    8.6625   -3.9275   24.7477 C   0  0  0  0  0  0  0  0  0  0  0  0
    9.6485   -4.6045   25.6530 C   0  0  0  0  0  0  0  0  0  0  0  0
   10.5759   -3.7836   26.4992 C   0  0  0  0  0  0  0  0  0  0  0  0
   10.5175   -2.2859   26.4401 C   0  0  0  0  0  0  0  0  0  0  0  0
    9.5315   -1.6090   25.5347 C   0  0  0  0  0  0  0  0  0  0  0  0
    8.6040   -2.4298   24.6885 C   0  0  0  0  0  0  0  0  0  0  0  0
    7.7184    6.0100   23.3942 C   0  0  0  0  0  0  0  0  0  0  0  0
    9.0314    7.6133   26.7788 C   0  0  0  0  0  0  0  0  0  0  0  0
    9.0006    6.8305   25.4996 N   0  0  0  0  0  0  0  0  0  0  0  0
    7.7493    6.7929   24.6734 C   0  0  0  0  0  0  0  0  0  0  0  0
    6.5287    7.5380   25.1263 O   0  0  0  0  0  0  0  0  0  0  0  0
    9.8016    6.3415   25.2024 H   0  0  0  0  0  0  0  0  0  0  0  0
    5.8251    3.2118   23.9146 C   0  0  0  0  0  0  0  0  0  0  0  0
    4.4195    3.1383   23.3960 N   0  0  0  0  0  0  0  0  0  0  0  0
    3.8984    2.3099   23.5022 H   0  0  0  0  0  0  0  0  0  0  0  0
    3.8080    4.3271   22.7157 C   0  0  0  0  0  0  0  0  0  0  0  0
    2.8089    4.1292   21.6145 C   0  0  0  0  0  0  0  0  0  0  0  0
    2.1973    5.3179   20.9341 N   0  0  0  0  0  0  0  0  0  0  0  0
    2.5848    6.7046   21.3549 C   0  0  0  0  0  0  0  0  0  0  0  0
    3.5839    6.9024   22.4561 C   0  0  0  0  0  0  0  0  0  0  0  0
    4.1955    5.7137   23.1365 N   0  0  0  0  0  0  0  0  0  0  0  0
 29 30  1  0  0  0
 30 31  1  0  0  0
 31 32  2  0  0  0
 31 28  1  0  0  0
 28  1  1  0  0  0
  1  2  1  0  0  0
  3  2  1  0  0  0
  3  4  1  0  0  0
  4  5  2  0  0  0
  4  6  1  0  0  0
  6 18  1  0  0  0
 18 19  2  0  0  0
 19 20  1  0  0  0
 20 21  2  0  0  0
 21 22  1  0  0  0
 22 23  2  0  0  0
 23 24  1  0  0  0
 24 25  2  0  0  0
 25 26  1  0  0  0
 26 27  2  0  0  0
  6  7  1  0  0  0
  7  8  1  0  0  0
  8 34  1  0  0  0
 34 35  1  0  0  0
 35 37  1  0  0  0
 37 38  2  0  0  0
 38 39  1  0  0  0
 39 40  2  0  0  0
 40 41  1  0  0  0
 41 42  2  0  0  0
  3  9  1  0  0  0
  9 10  2  0  0  0
 10 11  1  0  0  0
 11 12  1  0  0  0
 11 13  2  0  0  0
 13 14  1  0  0  0
 14 15  2  0  0  0
 15 16  1  0  0  0
 16 17  2  0  0  0
 16  1  1  0  0  0
  8  3  1  0  0  0
 42 37  1  0  0  0
 15  9  1  0  0  0
 27 18  1  0  0  0
 27 22  1  0  0  0
 30 33  1  0  0  0
 35 36  1  0  0  0
M  END
> <minimizedAffinity>
-6.96017

> <CNNscore>
0.2470728755

> <CNNaffinity>
6.8974442482

> <CNN_VS>
1.7041714191

> <CNNaffinity_variance>
0.3334093690

$$$$



 42 47  0  0  0  0  0  0  0  0999 V2000
    9.9624    0.7091   23.1130 N   0  0  0  0  0  0  0  0  0  0  0  0
    8.6087    0.0996   23.3275 C   0  0  0  0  0  0  0  0  0  0  0  0
    8.4520   -1.0739   24.2485 C   0  0  0  0  0  0  0  0  0  0  0  0
    8.1422   -2.2438   25.1347 C   0  0  0  0  0  0  0  0  0  0  0  0
    8.7040   -3.0200   25.8818 O   0  0  0  0  0  0  0  0  0  0  0  0
    6.6691   -2.5135   25.0484 N   0  0  0  0  0  0  0  0  0  0  0  0
    6.0685   -1.5102   24.1088 C   0  0  0  0  0  0  0  0  0  0  0  0
    7.1704   -0.6206   23.6144 C   0  0  0  0  0  0  0  0  0  0  0  0
    9.6490   -1.6380   24.9549 C   0  0  0  0  0  0  0  0  0  0  0  0
    9.4923   -2.8116   25.8759 C   0  0  0  0  0  0  0  0  0  0  0  0
   10.6893   -3.3756   26.5823 C   0  0  0  0  0  0  0  0  0  0  0  0
   10.5326   -4.5492   27.5033 Cl  0  0  0  0  0  0  0  0  0  0  0  0
   12.0430   -2.7661   26.3677 C   0  0  0  0  0  0  0  0  0  0  0  0
   12.1997   -1.5926   25.4468 C   0  0  0  0  0  0  0  0  0  0  0  0
   11.0027   -1.0285   24.7404 C   0  0  0  0  0  0  0  0  0  0  0  0
   11.1594    0.1451   23.8194 C   0  0  0  0  0  0  0  0  0  0  0  0
   12.5131    0.7546   23.6048 O   0  0  0  0  0  0  0  0  0  0  0  0
    5.9271   -3.5962   25.7743 C   0  0  0  0  0  0  0  0  0  0  0  0
    5.5560   -4.8610   25.0582 C   0  0  0  0  0  0  0  0  0  0  0  0
    4.8139   -5.9438   25.7840 N   0  0  0  0  0  0  0  0  0  0  0  0
    4.4429   -5.7618   27.2260 C   0  0  0  0  0  0  0  0  0  0  0  0
    4.8139   -4.4970   27.9420 C   0  0  0  0  0  0  0  0  0  0  0  0
    4.4428   -4.3151   29.3840 C   0  0  0  0  0  0  0  0  0  0  0  0
    4.8139   -3.0503   30.1000 C   0  0  0  0  0  0  0  0  0  0  0  0
    5.5560   -1.9675   29.3742 C   0  0  0  0  0  0  0  0  0  0  0  0
    5.9270   -2.1495   27.9323 C   0  0  0  0  0  0  0  0  0  0  0  0
    5.5560   -3.4143   27.2162 C   0  0  0  0  0  0  0  0  0  0  0  0
   10.1191    1.8827   22.1920 C   0  0  0  0  0  0  0  0  0  0  0  0
   10.6301    5.7321   23.0113 C   0  0  0  0  0  0  0  0  0  0  0  0
   10.8907    4.3434   22.5076 N   0  0  0  0  0  0  0  0  0  0  0  0
    9.8585    3.2714   22.6957 C   0  0  0  0  0  0  0  0  0  0  0  0
    8.5657    3.5880   23.3875 O   0  0  0  0  0  0  0  0  0  0  0  0
   11.7391    4.1356   22.0536 H   0  0  0  0  0  0  0  0  0  0  0  0
    7.0175    0.5219   22.6546 C   0  0  0  0  0  0  0  0  0  0  0  0
    5.6756    0.8246   22.0566 N   0  0  0  0  0  0  0  0  0  0  0  0
    4.9055    1.0067   22.6423 H   0  0  0  0  0  0  0  0  0  0  0  0
    5.5070    0.8500   20.5663 C   0  0  0  0  0  0  0  0  0  0  0  0
    6.5854    0.3008   19.6801 C   0  0  0  0  0  0  0  0  0  0  0  0
    6.4168    0.3262   18.1899 N   0  0  0  0  0  0  0  0  0  0  0  0
    5.1698    0.9007   17.5857 C   0  0  0  0  0  0  0  0  0  0  0  0
    4.0914    1.4499   18.4720 C   0  0  0  0  0  0  0  0  0  0  0  0
    4.2600    1.4245   19.9623 N   0  0  0  0  0  0  0  0  0  0  0  0
 29 30  1  0  0  0
 30 31  1  0  0  0
 31 32  2  0  0  0
 31 28  1  0  0  0
 28  1  1  0  0  0
  1  2  1  0  0  0
  3  2  1  0  0  0
  3  4  1  0  0  0
  4  5  2  0  0  0
  4  6  1  0  0  0
  6 18  1  0  0  0
 18 19  2  0  0  0
 19 20  1  0  0  0
 20 21  2  0  0  0
 21 22  1  0  0  0
 22 23  2  0  0  0
 23 24  1  0  0  0
 24 25  2  0  0  0
 25 26  1  0  0  0
 26 27  2  0  0  0
  6  7  1  0  0  0
  7  8  1  0  0  0
  8 34  1  0  0  0
 34 35  1  0  0  0
 35 37  1  0  0  0
 37 38  2  0  0  0
 38 39  1  0  0  0
 39 40  2  0  0  0
 40 41  1  0  0  0
 41 42  2  0  0  0
  3  9  1  0  0  0
  9 10  2  0  0  0
 10 11  1  0  0  0
 11 12  1  0  0  0
 11 13  2  0  0  0
 13 14  1  0  0  0
 14 15  2  0  0  0
 15 16  1  0  0  0
 16 17  2  0  0  0
 16  1  1  0  0  0
  8  3  1  0  0  0
 42 37  1  0  0  0
 15  9  1  0  0  0
 27 18  1  0  0  0
 27 22  1  0  0  0
 30 33  1  0  0  0
 35 36  1  0  0  0
M  END
> <minimizedAffinity>
-8.90185

> <CNNscore>
0.2301463336

> <CNNaffinity>
6.7858328819

> <CNN_VS>
1.5617345572

> <CNNaffinity_variance>
0.1744176447

$$$$



 42 47  0  0  0  0  0  0  0  0999 V2000
    6.3509    1.4030   21.3094 N   0  0  0  0  0  0  0  0  0  0  0  0
    7.6606    1.3719   22.0399 C   0  0  0  0  0  0  0  0  0  0  0  0
    8.1760    0.0798   22.6008 C   0  0  0  0  0  0  0  0  0  0  0  0
    8.8156   -1.1311   23.2130 C   0  0  0  0  0  0  0  0  0  0  0  0
    8.6115   -2.3205   23.3543 O   0  0  0  0  0  0  0  0  0  0  0  0
   10.1110   -0.7052   23.8379 N   0  0  0  0  0  0  0  0  0  0  0  0
   10.2721    0.7689   23.6119 C   0  0  0  0  0  0  0  0  0  0  0  0
    9.0762    1.2540   22.8474 C   0  0  0  0  0  0  0  0  0  0  0  0
    7.3817   -1.1814   22.4312 C   0  0  0  0  0  0  0  0  0  0  0  0
    7.8971   -2.4735   22.9921 C   0  0  0  0  0  0  0  0  0  0  0  0
    7.1028   -3.7345   22.8226 C   0  0  0  0  0  0  0  0  0  0  0  0
    7.6182   -5.0268   23.3835 Cl  0  0  0  0  0  0  0  0  0  0  0  0
    5.7930   -3.7034   22.0921 C   0  0  0  0  0  0  0  0  0  0  0  0
    5.2776   -2.4113   21.5312 C   0  0  0  0  0  0  0  0  0  0  0  0
    6.0720   -1.1502   21.7007 C   0  0  0  0  0  0  0  0  0  0  0  0
    5.5566    0.1420   21.1398 C   0  0  0  0  0  0  0  0  0  0  0  0
    4.2468    0.1731   20.4093 O   0  0  0  0  0  0  0  0  0  0  0  0
   11.0759   -1.5968   24.5617 C   0  0  0  0  0  0  0  0  0  0  0  0
   12.5156   -1.6407   24.1428 C   0  0  0  0  0  0  0  0  0  0  0  0
   13.4805   -2.5323   24.8665 N   0  0  0  0  0  0  0  0  0  0  0  0
   13.0058   -3.3802   26.0092 C   0  0  0  0  0  0  0  0  0  0  0  0
   11.5661   -3.3364   26.4281 C   0  0  0  0  0  0  0  0  0  0  0  0
   11.0914   -4.1843   27.5709 C   0  0  0  0  0  0  0  0  0  0  0  0
    9.6517   -4.1404   27.9897 C   0  0  0  0  0  0  0  0  0  0  0  0
    8.6868   -3.2487   27.2659 C   0  0  0  0  0  0  0  0  0  0  0  0
    9.1615   -2.4009   26.1232 C   0  0  0  0  0  0  0  0  0  0  0  0
   10.6012   -2.4447   25.7043 C   0  0  0  0  0  0  0  0  0  0  0  0
    5.8355    2.6953   20.7485 C   0  0  0  0  0  0  0  0  0  0  0  0
    2.6701    4.9615   21.5196 C   0  0  0  0  0  0  0  0  0  0  0  0
    3.6989    4.1734   20.7643 N   0  0  0  0  0  0  0  0  0  0  0  0
    4.8067    3.4834   21.5037 C   0  0  0  0  0  0  0  0  0  0  0  0
    4.8856    3.5814   22.9985 O   0  0  0  0  0  0  0  0  0  0  0  0
    3.6471    4.1090   19.7833 H   0  0  0  0  0  0  0  0  0  0  0  0
    8.8246    2.6656   22.4068 C   0  0  0  0  0  0  0  0  0  0  0  0
    9.1673    3.8077   23.3167 N   0  0  0  0  0  0  0  0  0  0  0  0
    8.7222    3.8912   24.1909 H   0  0  0  0  0  0  0  0  0  0  0  0
   10.1880    4.8227   22.8949 C   0  0  0  0  0  0  0  0  0  0  0  0
   11.5189    4.3738   22.3685 C   0  0  0  0  0  0  0  0  0  0  0  0
   12.5396    5.3887   21.9466 N   0  0  0  0  0  0  0  0  0  0  0  0
   12.2295    6.8526   22.0512 C   0  0  0  0  0  0  0  0  0  0  0  0
   10.8985    7.3015   22.5776 C   0  0  0  0  0  0  0  0  0  0  0  0
    9.8778    6.2865   22.9994 N   0  0  0  0  0  0  0  0  0  0  0  0
 29 30  1  0  0  0
 30 31  1  0  0  0
 31 32  2  0  0  0
 31 28  1  0  0  0
 28  1  1  0  0  0
  1  2  1  0  0  0
  3  2  1  0  0  0
  3  4  1  0  0  0
  4  5  2  0  0  0
  4  6  1  0  0  0
  6 18  1  0  0  0
 18 19  2  0  0  0
 19 20  1  0  0  0
 20 21  2  0  0  0
 21 22  1  0  0  0
 22 23  2  0  0  0
 23 24  1  0  0  0
 24 25  2  0  0  0
 25 26  1  0  0  0
 26 27  2  0  0  0
  6  7  1  0  0  0
  7  8  1  0  0  0
  8 34  1  0  0  0
 34 35  1  0  0  0
 35 37  1  0  0  0
 37 38  2  0  0  0
 38 39  1  0  0  0
 39 40  2  0  0  0
 40 41  1  0  0  0
 41 42  2  0  0  0
  3  9  1  0  0  0
  9 10  2  0  0  0
 10 11  1  0  0  0
 11 12  1  0  0  0
 11 13  2  0  0  0
 13 14  1  0  0  0
 14 15  2  0  0  0
 15 16  1  0  0  0
 16 17  2  0  0  0
 16  1  1  0  0  0
  8  3  1  0  0  0
 42 37  1  0  0  0
 15  9  1  0  0  0
 27 18  1  0  0  0
 27 22  1  0  0  0
 30 33  1  0  0  0
 35 36  1  0  0  0
M  END
> <minimizedAffinity>
-8.00334

> <CNNscore>
0.1771469712

> <CNNaffinity>
6.9785394669

> <CNN_VS>
1.2362271547

> <CNNaffinity_variance>
0.1917393953

$$$$



 42 47  0  0  0  0  0  0  0  0999 V2000
    6.5399   -2.8292   24.4927 N   0  0  0  0  0  0  0  0  0  0  0  0
    6.7615   -1.4620   23.9168 C   0  0  0  0  0  0  0  0  0  0  0  0
    8.1343   -0.8577   23.9262 C   0  0  0  0  0  0  0  0  0  0  0  0
    9.4435   -0.1281   23.8654 C   0  0  0  0  0  0  0  0  0  0  0  0
   10.6086   -0.2793   24.1754 O   0  0  0  0  0  0  0  0  0  0  0  0
    9.2039    1.2005   23.2116 N   0  0  0  0  0  0  0  0  0  0  0  0
    7.7466    1.2920   22.8682 C   0  0  0  0  0  0  0  0  0  0  0  0
    7.0856    0.0200   23.3099 C   0  0  0  0  0  0  0  0  0  0  0  0
    9.2856   -1.6205   24.5116 C   0  0  0  0  0  0  0  0  0  0  0  0
   10.6584   -1.0162   24.5209 C   0  0  0  0  0  0  0  0  0  0  0  0
   11.8096   -1.7791   25.1063 C   0  0  0  0  0  0  0  0  0  0  0  0
   13.1825   -1.1748   25.1157 Cl  0  0  0  0  0  0  0  0  0  0  0  0
   11.5880   -3.1463   25.6822 C   0  0  0  0  0  0  0  0  0  0  0  0
   10.2152   -3.7506   25.6728 C   0  0  0  0  0  0  0  0  0  0  0  0
    9.0640   -2.9877   25.0875 C   0  0  0  0  0  0  0  0  0  0  0  0
    7.6911   -3.5920   25.0781 C   0  0  0  0  0  0  0  0  0  0  0  0
    7.4695   -4.9592   25.6540 O   0  0  0  0  0  0  0  0  0  0  0  0
   10.2398    2.2527   22.9475 C   0  0  0  0  0  0  0  0  0  0  0  0
   11.6469    1.8532   22.6152 C   0  0  0  0  0  0  0  0  0  0  0  0
   12.6828    2.9055   22.3511 N   0  0  0  0  0  0  0  0  0  0  0  0
   12.3115    4.3572   22.4193 C   0  0  0  0  0  0  0  0  0  0  0  0
   10.9044    4.7567   22.7515 C   0  0  0  0  0  0  0  0  0  0  0  0
   10.5331    6.2085   22.8197 C   0  0  0  0  0  0  0  0  0  0  0  0
    9.1259    6.6078   23.1519 C   0  0  0  0  0  0  0  0  0  0  0  0
    8.0901    5.5556   23.4160 C   0  0  0  0  0  0  0  0  0  0  0  0
    8.4614    4.1039   23.3479 C   0  0  0  0  0  0  0  0  0  0  0  0
    9.8685    3.7044   23.0156 C   0  0  0  0  0  0  0  0  0  0  0  0
    5.1670   -3.4335   24.4833 C   0  0  0  0  0  0  0  0  0  0  0  0
    3.0634   -2.3887   27.6823 C   0  0  0  0  0  0  0  0  0  0  0  0
    3.8482   -2.2901   26.4078 N   0  0  0  0  0  0  0  0  0  0  0  0
    4.3822   -3.5320   25.7579 C   0  0  0  0  0  0  0  0  0  0  0  0
    4.1314   -4.8726   26.3824 O   0  0  0  0  0  0  0  0  0  0  0  0
    4.0128   -1.4103   25.9979 H   0  0  0  0  0  0  0  0  0  0  0  0
    5.6311   -0.3154   23.1612 C   0  0  0  0  0  0  0  0  0  0  0  0
    4.7397    0.5625   22.3339 N   0  0  0  0  0  0  0  0  0  0  0  0
    4.0894    1.1570   22.7730 H   0  0  0  0  0  0  0  0  0  0  0  0
    4.8390    0.5346   20.8374 C   0  0  0  0  0  0  0  0  0  0  0  0
    4.0185    1.4821   20.0135 C   0  0  0  0  0  0  0  0  0  0  0  0
    4.1178    1.4542   18.5171 N   0  0  0  0  0  0  0  0  0  0  0  0
    5.0377    0.4788   17.8445 C   0  0  0  0  0  0  0  0  0  0  0  0
    5.8583   -0.4687   18.6684 C   0  0  0  0  0  0  0  0  0  0  0  0
    5.7590   -0.4408   20.1649 N   0  0  0  0  0  0  0  0  0  0  0  0
 29 30  1  0  0  0
 30 31  1  0  0  0
 31 32  2  0  0  0
 31 28  1  0  0  0
 28  1  1  0  0  0
  1  2  1  0  0  0
  3  2  1  0  0  0
  3  4  1  0  0  0
  4  5  2  0  0  0
  4  6  1  0  0  0
  6 18  1  0  0  0
 18 19  2  0  0  0
 19 20  1  0  0  0
 20 21  2  0  0  0
 21 22  1  0  0  0
 22 23  2  0  0  0
 23 24  1  0  0  0
 24 25  2  0  0  0
 25 26  1  0  0  0
 26 27  2  0  0  0
  6  7  1  0  0  0
  7  8  1  0  0  0
  8 34  1  0  0  0
 34 35  1  0  0  0
 35 37  1  0  0  0
 37 38  2  0  0  0
 38 39  1  0  0  0
 39 40  2  0  0  0
 40 41  1  0  0  0
 41 42  2  0  0  0
  3  9  1  0  0  0
  9 10  2  0  0  0
 10 11  1  0  0  0
 11 12  1  0  0  0
 11 13  2  0  0  0
 13 14  1  0  0  0
 14 15  2  0  0  0
 15 16  1  0  0  0
 16 17  2  0  0  0
 16  1  1  0  0  0
  8  3  1  0  0  0
 42 37  1  0  0  0
 15  9  1  0  0  0
 27 18  1  0  0  0
 27 22  1  0  0  0
 30 33  1  0  0  0
 35 36  1  0  0  0
M  END
> <minimizedAffinity>
-7.60817

> <CNNscore>
0.1641752273

> <CNNaffinity>
6.7271127701

> <CNN_VS>
1.1044253111

> <CNNaffinity_variance>
0.1908331215

$$$$



 42 47  0  0  0  0  0  0  0  0999 V2000
    5.4886    3.8664   22.9114 N   0  0  0  0  0  0  0  0  0  0  0  0
    6.0954    2.4973   22.9965 C   0  0  0  0  0  0  0  0  0  0  0  0
    7.5856    2.3403   23.0638 C   0  0  0  0  0  0  0  0  0  0  0  0
    9.0510    2.0283   23.1368 C   0  0  0  0  0  0  0  0  0  0  0  0
   10.1241    2.5978   23.1551 O   0  0  0  0  0  0  0  0  0  0  0  0
    9.2046    0.5379   23.2090 N   0  0  0  0  0  0  0  0  0  0  0  0
    7.8342   -0.0713   23.1804 C   0  0  0  0  0  0  0  0  0  0  0  0
    6.8336    1.0427   23.0907 C   0  0  0  0  0  0  0  0  0  0  0  0
    8.4691    3.5524   23.0459 C   0  0  0  0  0  0  0  0  0  0  0  0
    9.9593    3.3954   23.1131 C   0  0  0  0  0  0  0  0  0  0  0  0
   10.8427    4.6075   23.0953 C   0  0  0  0  0  0  0  0  0  0  0  0
   12.3330    4.4505   23.1625 Cl  0  0  0  0  0  0  0  0  0  0  0  0
   10.2359    5.9766   23.0102 C   0  0  0  0  0  0  0  0  0  0  0  0
    8.7457    6.1336   22.9430 C   0  0  0  0  0  0  0  0  0  0  0  0
    7.8623    4.9215   22.9608 C   0  0  0  0  0  0  0  0  0  0  0  0
    6.3720    5.0785   22.8936 C   0  0  0  0  0  0  0  0  0  0  0  0
    5.7652    6.4477   22.8085 O   0  0  0  0  0  0  0  0  0  0  0  0
   10.5011   -0.2117   23.2946 C   0  0  0  0  0  0  0  0  0  0  0  0
   11.6031    0.0823   22.3204 C   0  0  0  0  0  0  0  0  0  0  0  0
   12.8996   -0.6673   22.4060 N   0  0  0  0  0  0  0  0  0  0  0  0
   13.0940   -1.7108   23.4658 C   0  0  0  0  0  0  0  0  0  0  0  0
   11.9919   -2.0048   24.4400 C   0  0  0  0  0  0  0  0  0  0  0  0
   12.1863   -3.0484   25.4998 C   0  0  0  0  0  0  0  0  0  0  0  0
   11.0842   -3.3423   26.4739 C   0  0  0  0  0  0  0  0  0  0  0  0
    9.7877   -2.5928   26.3883 C   0  0  0  0  0  0  0  0  0  0  0  0
    9.5934   -1.5492   25.3285 C   0  0  0  0  0  0  0  0  0  0  0  0
   10.6954   -1.2552   24.3544 C   0  0  0  0  0  0  0  0  0  0  0  0
    3.9983    4.0234   22.8442 C   0  0  0  0  0  0  0  0  0  0  0  0
    2.7012    7.3637   21.1383 C   0  0  0  0  0  0  0  0  0  0  0  0
    3.3049    6.0012   21.3087 N   0  0  0  0  0  0  0  0  0  0  0  0
    3.3946    5.3860   22.6738 C   0  0  0  0  0  0  0  0  0  0  0  0
    2.8807    6.1334   23.8685 O   0  0  0  0  0  0  0  0  0  0  0  0
    3.6422    5.5106   20.5246 H   0  0  0  0  0  0  0  0  0  0  0  0
    5.3427    0.8864   23.0373 C   0  0  0  0  0  0  0  0  0  0  0  0
    4.7231   -0.0679   22.0599 N   0  0  0  0  0  0  0  0  0  0  0  0
    4.2415   -0.8624   22.3855 H   0  0  0  0  0  0  0  0  0  0  0  0
    4.8373    0.1883   20.5863 C   0  0  0  0  0  0  0  0  0  0  0  0
    5.8354   -0.5755   19.7675 C   0  0  0  0  0  0  0  0  0  0  0  0
    5.9496   -0.3194   18.2940 N   0  0  0  0  0  0  0  0  0  0  0  0
    5.0657    0.7006   17.6392 C   0  0  0  0  0  0  0  0  0  0  0  0
    4.0677    1.4643   18.4581 C   0  0  0  0  0  0  0  0  0  0  0  0
    3.9535    1.2082   19.9317 N   0  0  0  0  0  0  0  0  0  0  0  0
 29 30  1  0  0  0
 30 31  1  0  0  0
 31 32  2  0  0  0
 31 28  1  0  0  0
 28  1  1  0  0  0
  1  2  1  0  0  0
  3  2  1  0  0  0
  3  4  1  0  0  0
  4  5  2  0  0  0
  4  6  1  0  0  0
  6 18  1  0  0  0
 18 19  2  0  0  0
 19 20  1  0  0  0
 20 21  2  0  0  0
 21 22  1  0  0  0
 22 23  2  0  0  0
 23 24  1  0  0  0
 24 25  2  0  0  0
 25 26  1  0  0  0
 26 27  2  0  0  0
  6  7  1  0  0  0
  7  8  1  0  0  0
  8 34  1  0  0  0
 34 35  1  0  0  0
 35 37  1  0  0  0
 37 38  2  0  0  0
 38 39  1  0  0  0
 39 40  2  0  0  0
 40 41  1  0  0  0
 41 42  2  0  0  0
  3  9  1  0  0  0
  9 10  2  0  0  0
 10 11  1  0  0  0
 11 12  1  0  0  0
 11 13  2  0  0  0
 13 14  1  0  0  0
 14 15  2  0  0  0
 15 16  1  0  0  0
 16 17  2  0  0  0
 16  1  1  0  0  0
  8  3  1  0  0  0
 42 37  1  0  0  0
 15  9  1  0  0  0
 27 18  1  0  0  0
 27 22  1  0  0  0
 30 33  1  0  0  0
 35 36  1  0  0  0
M  END
> <minimizedAffinity>
-8.27284

> <CNNscore>
0.1619043797

> <CNNaffinity>
6.5824036598

> <CNN_VS>
1.0657199621

> <CNNaffinity_variance>
0.1990635842

$$$$
