


 42 47  0  0  0  0  0  0  0  0999 V2000
   -7.0484   -0.8339  -23.1348 N   0  0  0  0  0  0  0  0  0  0  0  0
   -7.5158    0.5778  -23.3312 C   0  0  0  0  0  0  0  0  0  0  0  0
   -8.9838    0.8805  -23.3890 C   0  0  0  0  0  0  0  0  0  0  0  0
  -10.4115    1.3338  -23.4667 C   0  0  0  0  0  0  0  0  0  0  0  0
  -11.5368    0.8780  -23.4180 O   0  0  0  0  0  0  0  0  0  0  0  0
  -10.4157    2.8202  -23.6678 N   0  0  0  0  0  0  0  0  0  0  0  0
   -8.9905    3.2857  -23.7144 C   0  0  0  0  0  0  0  0  0  0  0  0
   -8.1056    2.0869  -23.5421 C   0  0  0  0  0  0  0  0  0  0  0  0
   -9.9844   -0.2284  -23.2505 C   0  0  0  0  0  0  0  0  0  0  0  0
  -11.4523    0.0743  -23.3083 C   0  0  0  0  0  0  0  0  0  0  0  0
  -12.4528   -1.0346  -23.1698 C   0  0  0  0  0  0  0  0  0  0  0  0
  -13.9208   -0.7319  -23.2277 Cl  0  0  0  0  0  0  0  0  0  0  0  0
  -11.9853   -2.4463  -22.9735 C   0  0  0  0  0  0  0  0  0  0  0  0
  -10.5174   -2.7491  -22.9157 C   0  0  0  0  0  0  0  0  0  0  0  0
   -9.5169   -1.6401  -23.0542 C   0  0  0  0  0  0  0  0  0  0  0  0
   -8.0488   -1.9429  -22.9964 C   0  0  0  0  0  0  0  0  0  0  0  0
   -7.5814   -3.3546  -22.8000 O   0  0  0  0  0  0  0  0  0  0  0  0
  -11.6317    3.6887  -23.7993 C   0  0  0  0  0  0  0  0  0  0  0  0
  -12.5436    3.8852  -22.6246 C   0  0  0  0  0  0  0  0  0  0  0  0
  -13.7595    4.7537  -22.7561 N   0  0  0  0  0  0  0  0  0  0  0  0
  -14.0635    5.4257  -24.0622 C   0  0  0  0  0  0  0  0  0  0  0  0
  -13.1515    5.2292  -25.2369 C   0  0  0  0  0  0  0  0  0  0  0  0
  -13.4556    5.9013  -26.5431 C   0  0  0  0  0  0  0  0  0  0  0  0
  -12.5436    5.7047  -27.7177 C   0  0  0  0  0  0  0  0  0  0  0  0
  -11.3277    4.8362  -27.5862 C   0  0  0  0  0  0  0  0  0  0  0  0
  -11.0237    4.1642  -26.2801 C   0  0  0  0  0  0  0  0  0  0  0  0
  -11.9356    4.3607  -25.1054 C   0  0  0  0  0  0  0  0  0  0  0  0
   -5.5803   -1.1367  -23.0770 C   0  0  0  0  0  0  0  0  0  0  0  0
   -3.8877   -2.1684  -26.5151 C   0  0  0  0  0  0  0  0  0  0  0  0
   -4.7171   -2.2359  -25.2671 N   0  0  0  0  0  0  0  0  0  0  0  0
   -4.7509   -1.0692  -24.3250 C   0  0  0  0  0  0  0  0  0  0  0  0
   -3.9553    0.1651  -24.6309 O   0  0  0  0  0  0  0  0  0  0  0  0
   -5.2393   -3.0460  -25.0663 H   0  0  0  0  0  0  0  0  0  0  0  0
   -6.6057    2.0933  -23.5257 C   0  0  0  0  0  0  0  0  0  0  0  0
   -5.8685    3.1487  -22.7558 N   0  0  0  0  0  0  0  0  0  0  0  0
   -6.1029    4.0976  -22.8733 H   0  0  0  0  0  0  0  0  0  0  0  0
   -4.7743    2.7582  -21.8070 C   0  0  0  0  0  0  0  0  0  0  0  0
   -3.4591    3.4786  -21.8416 C   0  0  0  0  0  0  0  0  0  0  0  0
   -2.3650    3.0882  -20.8928 N   0  0  0  0  0  0  0  0  0  0  0  0
   -2.5859    1.9774  -19.9093 C   0  0  0  0  0  0  0  0  0  0  0  0
   -3.9012    1.2570  -19.8747 C   0  0  0  0  0  0  0  0  0  0  0  0
   -4.9954    1.6474  -20.8235 N   0  0  0  0  0  0  0  0  0  0  0  0
 29 30  1  0  0  0
 30 31  1  0  0  0
 31 32  2  0  0  0
 31 28  1  0  0  0
 28  1  1  0  0  0
  1  2  1  0  0  0
  3  2  1  0  0  0
  3  4  1  0  0  0
  4  5  2  0  0  0
  4  6  1  0  0  0
  6 18  1  0  0  0
 18 19  2  0  0  0
 19 20  1  0  0  0
 20 21  2  0  0  0
 21 22  1  0  0  0
 22 23  2  0  0  0
 23 24  1  0  0  0
 24 25  2  0  0  0
 25 26  1  0  0  0
 26 27  2  0  0  0
  6  7  1  0  0  0
  7  8  1  0  0  0
  8 34  1  0  0  0
 34 35  1  0  0  0
 35 37  1  0  0  0
 37 38  2  0  0  0
 38 39  1  0  0  0
 39 40  2  0  0  0
 40 41  1  0  0  0
 41 42  2  0  0  0
  3  9  1  0  0  0
  9 10  2  0  0  0
 10 11  1  0  0  0
 11 12  1  0  0  0
 11 13  2  0  0  0
 13 14  1  0  0  0
 14 15  2  0  0  0
 15 16  1  0  0  0
 16 17  2  0  0  0
 16  1  1  0  0  0
  8  3  1  0  0  0
 42 37  1  0  0  0
 15  9  1  0  0  0
 27 18  1  0  0  0
 27 22  1  0  0  0
 30 33  1  0  0  0
 35 36  1  0  0  0
M  END
> <minimizedAffinity>
-7.90174

> <CNNscore>
0.7160842419

> <CNNaffinity>
7.0409851074

> <CNN_VS>
5.0419383049

> <CNNaffinity_variance>
0.0759725794

$$$$



 42 47  0  0  0  0  0  0  0  0999 V2000
   -5.4690   -6.0796  -23.5617 N   0  0  0  0  0  0  0  0  0  0  0  0
   -6.0584   -4.8175  -23.0052 C   0  0  0  0  0  0  0  0  0  0  0  0
   -7.1217   -4.0858  -23.7692 C   0  0  0  0  0  0  0  0  0  0  0  0
   -8.1863   -3.2498  -24.4158 C   0  0  0  0  0  0  0  0  0  0  0  0
   -8.8702   -3.2271  -25.4198 O   0  0  0  0  0  0  0  0  0  0  0  0
   -8.4725   -2.0854  -23.5145 N   0  0  0  0  0  0  0  0  0  0  0  0
   -7.5849   -2.2017  -22.3109 C   0  0  0  0  0  0  0  0  0  0  0  0
   -6.7501   -3.4380  -22.4683 C   0  0  0  0  0  0  0  0  0  0  0  0
   -7.5958   -4.6161  -25.0899 C   0  0  0  0  0  0  0  0  0  0  0  0
   -8.6591   -3.8844  -25.8539 C   0  0  0  0  0  0  0  0  0  0  0  0
   -9.1331   -4.4147  -27.1745 C   0  0  0  0  0  0  0  0  0  0  0  0
  -10.1965   -3.6830  -27.9386 Cl  0  0  0  0  0  0  0  0  0  0  0  0
   -8.5437   -5.6768  -27.7311 C   0  0  0  0  0  0  0  0  0  0  0  0
   -7.4804   -6.4085  -26.9671 C   0  0  0  0  0  0  0  0  0  0  0  0
   -7.0064   -5.8782  -25.6465 C   0  0  0  0  0  0  0  0  0  0  0  0
   -5.9430   -6.6099  -24.8823 C   0  0  0  0  0  0  0  0  0  0  0  0
   -5.3536   -7.8720  -25.4389 O   0  0  0  0  0  0  0  0  0  0  0  0
   -9.4711   -0.9961  -23.7717 C   0  0  0  0  0  0  0  0  0  0  0  0
   -9.0286    0.2955  -24.3931 C   0  0  0  0  0  0  0  0  0  0  0  0
  -10.0272    1.3849  -24.6504 N   0  0  0  0  0  0  0  0  0  0  0  0
  -11.4681    1.1827  -24.2861 C   0  0  0  0  0  0  0  0  0  0  0  0
  -11.9106   -0.1089  -23.6647 C   0  0  0  0  0  0  0  0  0  0  0  0
  -13.3517   -0.3110  -23.3005 C   0  0  0  0  0  0  0  0  0  0  0  0
  -13.7940   -1.6026  -22.6790 C   0  0  0  0  0  0  0  0  0  0  0  0
  -12.7955   -2.6920  -22.4218 C   0  0  0  0  0  0  0  0  0  0  0  0
  -11.3545   -2.4898  -22.7861 C   0  0  0  0  0  0  0  0  0  0  0  0
  -10.9120   -1.1983  -23.4075 C   0  0  0  0  0  0  0  0  0  0  0  0
   -4.4056   -6.8113  -22.7976 C   0  0  0  0  0  0  0  0  0  0  0  0
   -1.3562   -6.5736  -25.3263 C   0  0  0  0  0  0  0  0  0  0  0  0
   -2.7104   -6.3665  -24.7155 N   0  0  0  0  0  0  0  0  0  0  0  0
   -3.0513   -7.0185  -23.4084 C   0  0  0  0  0  0  0  0  0  0  0  0
   -2.0379   -7.8776  -22.7120 O   0  0  0  0  0  0  0  0  0  0  0  0
   -3.3755   -5.8026  -25.1726 H   0  0  0  0  0  0  0  0  0  0  0  0
   -5.7238   -3.9386  -21.4956 C   0  0  0  0  0  0  0  0  0  0  0  0
   -5.7606   -3.4845  -20.0666 N   0  0  0  0  0  0  0  0  0  0  0  0
   -6.0510   -4.1055  -19.3600 H   0  0  0  0  0  0  0  0  0  0  0  0
   -5.3549   -2.0841  -19.7138 C   0  0  0  0  0  0  0  0  0  0  0  0
   -4.5908   -1.2532  -20.7017 C   0  0  0  0  0  0  0  0  0  0  0  0
   -4.1852    0.1470  -20.3491 N   0  0  0  0  0  0  0  0  0  0  0  0
   -4.5435    0.7166  -19.0084 C   0  0  0  0  0  0  0  0  0  0  0  0
   -5.3075   -0.1142  -18.0205 C   0  0  0  0  0  0  0  0  0  0  0  0
   -5.7132   -1.5146  -18.3732 N   0  0  0  0  0  0  0  0  0  0  0  0
 29 30  1  0  0  0
 30 31  1  0  0  0
 31 32  2  0  0  0
 31 28  1  0  0  0
 28  1  1  0  0  0
  1  2  1  0  0  0
  3  2  1  0  0  0
  3  4  1  0  0  0
  4  5  2  0  0  0
  4  6  1  0  0  0
  6 18  1  0  0  0
 18 19  2  0  0  0
 19 20  1  0  0  0
 20 21  2  0  0  0
 21 22  1  0  0  0
 22 23  2  0  0  0
 23 24  1  0  0  0
 24 25  2  0  0  0
 25 26  1  0  0  0
 26 27  2  0  0  0
  6  7  1  0  0  0
  7  8  1  0  0  0
  8 34  1  0  0  0
 34 35  1  0  0  0
 35 37  1  0  0  0
 37 38  2  0  0  0
 38 39  1  0  0  0
 39 40  2  0  0  0
 40 41  1  0  0  0
 41 42  2  0  0  0
  3  9  1  0  0  0
  9 10  2  0  0  0
 10 11  1  0  0  0
 11 12  1  0  0  0
 11 13  2  0  0  0
 13 14  1  0  0  0
 14 15  2  0  0  0
 15 16  1  0  0  0
 16 17  2  0  0  0
 16  1  1  0  0  0
  8  3  1  0  0  0
 42 37  1  0  0  0
 15  9  1  0  0  0
 27 18  1  0  0  0
 27 22  1  0  0  0
 30 33  1  0  0  0
 35 36  1  0  0  0
M  END
> <minimizedAffinity>
-8.16575

> <CNNscore>
0.4036394656

> <CNNaffinity>
7.0337419510

> <CNN_VS>
2.8390958309

> <CNNaffinity_variance>
0.1007077694

$$$$



 42 47  0  0  0  0  0  0  0  0999 V2000
   -6.8392   -0.9462  -22.4130 N   0  0  0  0  0  0  0  0  0  0  0  0
   -6.9762    0.3707  -23.1180 C   0  0  0  0  0  0  0  0  0  0  0  0
   -8.3142    0.8089  -23.6352 C   0  0  0  0  0  0  0  0  0  0  0  0
   -9.5808    1.3772  -24.2034 C   0  0  0  0  0  0  0  0  0  0  0  0
  -10.7576    1.0974  -24.3173 O   0  0  0  0  0  0  0  0  0  0  0  0
   -9.2581    2.7083  -24.8151 N   0  0  0  0  0  0  0  0  0  0  0  0
   -7.7921    2.9626  -24.6250 C   0  0  0  0  0  0  0  0  0  0  0  0
   -7.2088    1.7887  -23.8957 C   0  0  0  0  0  0  0  0  0  0  0  0
   -9.5154   -0.0698  -23.4474 C   0  0  0  0  0  0  0  0  0  0  0  0
  -10.8534    0.3684  -23.9645 C   0  0  0  0  0  0  0  0  0  0  0  0
  -12.0545   -0.5103  -23.7767 C   0  0  0  0  0  0  0  0  0  0  0  0
  -13.3927   -0.0721  -24.2939 Cl  0  0  0  0  0  0  0  0  0  0  0  0
  -11.9175   -1.8272  -23.0717 C   0  0  0  0  0  0  0  0  0  0  0  0
  -10.5794   -2.2654  -22.5546 C   0  0  0  0  0  0  0  0  0  0  0  0
   -9.3784   -1.3867  -22.7424 C   0  0  0  0  0  0  0  0  0  0  0  0
   -8.0402   -1.8249  -22.2252 C   0  0  0  0  0  0  0  0  0  0  0  0
   -7.9032   -3.1418  -21.5202 O   0  0  0  0  0  0  0  0  0  0  0  0
  -10.2306    3.6242  -25.4972 C   0  0  0  0  0  0  0  0  0  0  0  0
  -10.0938    3.9052  -26.9643 C   0  0  0  0  0  0  0  0  0  0  0  0
  -11.0663    4.8211  -27.6465 N   0  0  0  0  0  0  0  0  0  0  0  0
  -12.1757    5.4559  -26.8615 C   0  0  0  0  0  0  0  0  0  0  0  0
  -12.3125    5.1749  -25.3944 C   0  0  0  0  0  0  0  0  0  0  0  0
  -13.4220    5.8098  -24.6094 C   0  0  0  0  0  0  0  0  0  0  0  0
  -13.5588    5.5287  -23.1423 C   0  0  0  0  0  0  0  0  0  0  0  0
  -12.5862    4.6128  -22.4602 C   0  0  0  0  0  0  0  0  0  0  0  0
  -11.4768    3.9780  -23.2452 C   0  0  0  0  0  0  0  0  0  0  0  0
  -11.3400    4.2590  -24.7123 C   0  0  0  0  0  0  0  0  0  0  0  0
   -5.5010   -1.3844  -21.8958 C   0  0  0  0  0  0  0  0  0  0  0  0
   -5.0722   -0.2893  -18.1055 C   0  0  0  0  0  0  0  0  0  0  0  0
   -5.3171   -0.2144  -19.5834 N   0  0  0  0  0  0  0  0  0  0  0  0
   -5.2561   -1.4593  -20.4178 C   0  0  0  0  0  0  0  0  0  0  0  0
   -4.9501   -2.7793  -19.7743 O   0  0  0  0  0  0  0  0  0  0  0  0
   -5.5179    0.6519  -20.0058 H   0  0  0  0  0  0  0  0  0  0  0  0
   -5.7722    1.6237  -23.4970 C   0  0  0  0  0  0  0  0  0  0  0  0
   -5.1610    2.5544  -22.4921 N   0  0  0  0  0  0  0  0  0  0  0  0
   -5.6554    3.3526  -22.1960 H   0  0  0  0  0  0  0  0  0  0  0  0
   -3.7965    2.2692  -21.9382 C   0  0  0  0  0  0  0  0  0  0  0  0
   -3.5001    2.5468  -20.4943 C   0  0  0  0  0  0  0  0  0  0  0  0
   -2.1356    2.2616  -19.9404 N   0  0  0  0  0  0  0  0  0  0  0  0
   -1.0674    1.6987  -20.8305 C   0  0  0  0  0  0  0  0  0  0  0  0
   -1.3638    1.4212  -22.2745 C   0  0  0  0  0  0  0  0  0  0  0  0
   -2.7283    1.7064  -22.8284 N   0  0  0  0  0  0  0  0  0  0  0  0
 29 30  1  0  0  0
 30 31  1  0  0  0
 31 32  2  0  0  0
 31 28  1  0  0  0
 28  1  1  0  0  0
  1  2  1  0  0  0
  3  2  1  0  0  0
  3  4  1  0  0  0
  4  5  2  0  0  0
  4  6  1  0  0  0
  6 18  1  0  0  0
 18 19  2  0  0  0
 19 20  1  0  0  0
 20 21  2  0  0  0
 21 22  1  0  0  0
 22 23  2  0  0  0
 23 24  1  0  0  0
 24 25  2  0  0  0
 25 26  1  0  0  0
 26 27  2  0  0  0
  6  7  1  0  0  0
  7  8  1  0  0  0
  8 34  1  0  0  0
 34 35  1  0  0  0
 35 37  1  0  0  0
 37 38  2  0  0  0
 38 39  1  0  0  0
 39 40  2  0  0  0
 40 41  1  0  0  0
 41 42  2  0  0  0
  3  9  1  0  0  0
  9 10  2  0  0  0
 10 11  1  0  0  0
 11 12  1  0  0  0
 11 13  2  0  0  0
 13 14  1  0  0  0
 14 15  2  0  0  0
 15 16  1  0  0  0
 16 17  2  0  0  0
 16  1  1  0  0  0
  8  3  1  0  0  0
 42 37  1  0  0  0
 15  9  1  0  0  0
 27 18  1  0  0  0
 27 22  1  0  0  0
 30 33  1  0  0  0
 35 36  1  0  0  0
M  END
> <minimizedAffinity>
-7.58770

> <CNNscore>
0.2561447024

> <CNNaffinity>
6.3921823502

> <CNN_VS>
1.6373236179

> <CNNaffinity_variance>
0.1778418720

$$$$



 42 47  0  0  0  0  0  0  0  0999 V2000
   -9.1074    2.6435  -24.7270 N   0  0  0  0  0  0  0  0  0  0  0  0
   -8.2203    1.4396  -24.8446 C   0  0  0  0  0  0  0  0  0  0  0  0
   -8.7447    0.0829  -24.4782 C   0  0  0  0  0  0  0  0  0  0  0  0
   -9.1275   -1.3298  -24.1501 C   0  0  0  0  0  0  0  0  0  0  0  0
  -10.0808   -1.9661  -23.7467 O   0  0  0  0  0  0  0  0  0  0  0  0
   -7.9384   -2.2054  -24.4136 N   0  0  0  0  0  0  0  0  0  0  0  0
   -6.8207   -1.3339  -24.9046 C   0  0  0  0  0  0  0  0  0  0  0  0
   -7.3190    0.0804  -24.9445 C   0  0  0  0  0  0  0  0  0  0  0  0
  -10.1563   -0.0700  -23.9942 C   0  0  0  0  0  0  0  0  0  0  0  0
  -10.6807   -1.4267  -23.6278 C   0  0  0  0  0  0  0  0  0  0  0  0
  -12.0922   -1.5796  -23.1438 C   0  0  0  0  0  0  0  0  0  0  0  0
  -12.6166   -2.9363  -22.7774 Cl  0  0  0  0  0  0  0  0  0  0  0  0
  -12.9792   -0.3757  -23.0262 C   0  0  0  0  0  0  0  0  0  0  0  0
  -12.4548    0.9810  -23.3926 C   0  0  0  0  0  0  0  0  0  0  0  0
  -11.0433    1.1338  -23.8766 C   0  0  0  0  0  0  0  0  0  0  0  0
  -10.5188    2.4906  -24.2430 C   0  0  0  0  0  0  0  0  0  0  0  0
  -11.4059    3.6945  -24.1254 O   0  0  0  0  0  0  0  0  0  0  0  0
   -7.8778   -3.6917  -24.2202 C   0  0  0  0  0  0  0  0  0  0  0  0
   -7.2817   -4.2612  -22.9670 C   0  0  0  0  0  0  0  0  0  0  0  0
   -7.2211   -5.7474  -22.7736 N   0  0  0  0  0  0  0  0  0  0  0  0
   -7.7565   -6.6641  -23.8332 C   0  0  0  0  0  0  0  0  0  0  0  0
   -8.3526   -6.0946  -25.0864 C   0  0  0  0  0  0  0  0  0  0  0  0
   -8.8880   -7.0114  -26.1461 C   0  0  0  0  0  0  0  0  0  0  0  0
   -9.4841   -6.4418  -27.3992 C   0  0  0  0  0  0  0  0  0  0  0  0
   -9.5447   -4.9555  -27.5927 C   0  0  0  0  0  0  0  0  0  0  0  0
   -9.0093   -4.0388  -26.5330 C   0  0  0  0  0  0  0  0  0  0  0  0
   -8.4132   -4.6084  -25.2799 C   0  0  0  0  0  0  0  0  0  0  0  0
   -8.5829    4.0002  -25.0934 C   0  0  0  0  0  0  0  0  0  0  0  0
   -6.9143    5.9063  -22.0385 C   0  0  0  0  0  0  0  0  0  0  0  0
   -7.9452    5.2424  -22.9024 N   0  0  0  0  0  0  0  0  0  0  0  0
   -7.5520    4.6642  -24.2294 C   0  0  0  0  0  0  0  0  0  0  0  0
   -6.1278    4.7501  -24.6926 O   0  0  0  0  0  0  0  0  0  0  0  0
   -8.8799    5.1860  -22.5984 H   0  0  0  0  0  0  0  0  0  0  0  0
   -6.5301    1.2813  -25.3751 C   0  0  0  0  0  0  0  0  0  0  0  0
   -5.1408    1.4934  -24.8510 N   0  0  0  0  0  0  0  0  0  0  0  0
   -4.4110    1.7241  -25.4702 H   0  0  0  0  0  0  0  0  0  0  0  0
   -4.8634    1.3541  -23.3834 C   0  0  0  0  0  0  0  0  0  0  0  0
   -4.9679    2.5497  -22.4836 C   0  0  0  0  0  0  0  0  0  0  0  0
   -4.6905    2.4104  -21.0162 N   0  0  0  0  0  0  0  0  0  0  0  0
   -4.3085    1.0755  -20.4484 C   0  0  0  0  0  0  0  0  0  0  0  0
   -4.2039   -0.1200  -21.3482 C   0  0  0  0  0  0  0  0  0  0  0  0
   -4.4814    0.0193  -22.8157 N   0  0  0  0  0  0  0  0  0  0  0  0
 29 30  1  0  0  0
 30 31  1  0  0  0
 31 32  2  0  0  0
 31 28  1  0  0  0
 28  1  1  0  0  0
  1  2  1  0  0  0
  3  2  1  0  0  0
  3  4  1  0  0  0
  4  5  2  0  0  0
  4  6  1  0  0  0
  6 18  1  0  0  0
 18 19  2  0  0  0
 19 20  1  0  0  0
 20 21  2  0  0  0
 21 22  1  0  0  0
 22 23  2  0  0  0
 23 24  1  0  0  0
 24 25  2  0  0  0
 25 26  1  0  0  0
 26 27  2  0  0  0
  6  7  1  0  0  0
  7  8  1  0  0  0
  8 34  1  0  0  0
 34 35  1  0  0  0
 35 37  1  0  0  0
 37 38  2  0  0  0
 38 39  1  0  0  0
 39 40  2  0  0  0
 40 41  1  0  0  0
 41 42  2  0  0  0
  3  9  1  0  0  0
  9 10  2  0  0  0
 10 11  1  0  0  0
 11 12  1  0  0  0
 11 13  2  0  0  0
 13 14  1  0  0  0
 14 15  2  0  0  0
 15 16  1  0  0  0
 16 17  2  0  0  0
 16  1  1  0  0  0
  8  3  1  0  0  0
 42 37  1  0  0  0
 15  9  1  0  0  0
 27 18  1  0  0  0
 27 22  1  0  0  0
 30 33  1  0  0  0
 35 36  1  0  0  0
M  END
> <minimizedAffinity>
-7.50171

> <CNNscore>
0.2310083210

> <CNNaffinity>
6.6981210709

> <CNN_VS>
1.5473216772

> <CNNaffinity_variance>
0.1492723972

$$$$



 42 47  0  0  0  0  0  0  0  0999 V2000
   -8.7487    2.5660  -24.1373 N   0  0  0  0  0  0  0  0  0  0  0  0
   -7.8890    1.3419  -24.2480 C   0  0  0  0  0  0  0  0  0  0  0  0
   -8.4915   -0.0179  -24.0536 C   0  0  0  0  0  0  0  0  0  0  0  0
   -8.9506   -1.4360  -23.8853 C   0  0  0  0  0  0  0  0  0  0  0  0
   -9.9626   -2.0645  -23.6460 O   0  0  0  0  0  0  0  0  0  0  0  0
   -7.7646   -2.3334  -24.0797 N   0  0  0  0  0  0  0  0  0  0  0  0
   -6.5724   -1.4700  -24.3682 C   0  0  0  0  0  0  0  0  0  0  0  0
   -7.0217   -0.0390  -24.3520 C   0  0  0  0  0  0  0  0  0  0  0  0
   -9.9539   -0.1536  -23.7484 C   0  0  0  0  0  0  0  0  0  0  0  0
  -10.5565   -1.5134  -23.5540 C   0  0  0  0  0  0  0  0  0  0  0  0
  -12.0188   -1.6490  -23.2488 C   0  0  0  0  0  0  0  0  0  0  0  0
  -12.6214   -3.0089  -23.0544 Cl  0  0  0  0  0  0  0  0  0  0  0  0
  -12.8786   -0.4249  -23.1381 C   0  0  0  0  0  0  0  0  0  0  0  0
  -12.2760    0.9349  -23.3325 C   0  0  0  0  0  0  0  0  0  0  0  0
  -10.8137    1.0705  -23.6377 C   0  0  0  0  0  0  0  0  0  0  0  0
  -10.2110    2.4304  -23.8321 C   0  0  0  0  0  0  0  0  0  0  0  0
  -11.0708    3.6545  -23.7214 O   0  0  0  0  0  0  0  0  0  0  0  0
   -7.7698   -3.8313  -23.9998 C   0  0  0  0  0  0  0  0  0  0  0  0
   -7.2363   -4.5190  -22.7781 C   0  0  0  0  0  0  0  0  0  0  0  0
   -7.2415   -6.0169  -22.6982 N   0  0  0  0  0  0  0  0  0  0  0  0
   -7.7802   -6.8270  -23.8398 C   0  0  0  0  0  0  0  0  0  0  0  0
   -8.3138   -6.1392  -25.0615 C   0  0  0  0  0  0  0  0  0  0  0  0
   -8.8525   -6.9494  -26.2032 C   0  0  0  0  0  0  0  0  0  0  0  0
   -9.3860   -6.2616  -27.4248 C   0  0  0  0  0  0  0  0  0  0  0  0
   -9.3808   -4.7638  -27.5048 C   0  0  0  0  0  0  0  0  0  0  0  0
   -8.8420   -3.9537  -26.3631 C   0  0  0  0  0  0  0  0  0  0  0  0
   -8.3085   -4.6414  -25.1415 C   0  0  0  0  0  0  0  0  0  0  0  0
   -8.1461    3.9259  -24.3317 C   0  0  0  0  0  0  0  0  0  0  0  0
   -9.8476    6.4262  -26.9014 C   0  0  0  0  0  0  0  0  0  0  0  0
   -9.5720    5.6566  -25.6437 N   0  0  0  0  0  0  0  0  0  0  0  0
   -8.4217    4.6955  -25.5894 C   0  0  0  0  0  0  0  0  0  0  0  0
   -7.5469    4.5039  -26.7928 O   0  0  0  0  0  0  0  0  0  0  0  0
  -10.1461    5.7823  -24.8539 H   0  0  0  0  0  0  0  0  0  0  0  0
   -6.1535    1.1604  -24.5921 C   0  0  0  0  0  0  0  0  0  0  0  0
   -4.7467    1.1843  -24.0722 N   0  0  0  0  0  0  0  0  0  0  0  0
   -3.9897    1.2031  -24.7013 H   0  0  0  0  0  0  0  0  0  0  0  0
   -4.4933    1.1795  -22.5938 C   0  0  0  0  0  0  0  0  0  0  0  0
   -3.9632    2.4101  -21.9197 C   0  0  0  0  0  0  0  0  0  0  0  0
   -3.7098    2.4053  -20.4413 N   0  0  0  0  0  0  0  0  0  0  0  0
   -3.9865    1.1698  -19.6369 C   0  0  0  0  0  0  0  0  0  0  0  0
   -4.5166   -0.0608  -20.3110 C   0  0  0  0  0  0  0  0  0  0  0  0
   -4.7701   -0.0560  -21.7894 N   0  0  0  0  0  0  0  0  0  0  0  0
 29 30  1  0  0  0
 30 31  1  0  0  0
 31 32  2  0  0  0
 31 28  1  0  0  0
 28  1  1  0  0  0
  1  2  1  0  0  0
  3  2  1  0  0  0
  3  4  1  0  0  0
  4  5  2  0  0  0
  4  6  1  0  0  0
  6 18  1  0  0  0
 18 19  2  0  0  0
 19 20  1  0  0  0
 20 21  2  0  0  0
 21 22  1  0  0  0
 22 23  2  0  0  0
 23 24  1  0  0  0
 24 25  2  0  0  0
 25 26  1  0  0  0
 26 27  2  0  0  0
  6  7  1  0  0  0
  7  8  1  0  0  0
  8 34  1  0  0  0
 34 35  1  0  0  0
 35 37  1  0  0  0
 37 38  2  0  0  0
 38 39  1  0  0  0
 39 40  2  0  0  0
 40 41  1  0  0  0
 41 42  2  0  0  0
  3  9  1  0  0  0
  9 10  2  0  0  0
 10 11  1  0  0  0
 11 12  1  0  0  0
 11 13  2  0  0  0
 13 14  1  0  0  0
 14 15  2  0  0  0
 15 16  1  0  0  0
 16 17  2  0  0  0
 16  1  1  0  0  0
  8  3  1  0  0  0
 42 37  1  0  0  0
 15  9  1  0  0  0
 27 18  1  0  0  0
 27 22  1  0  0  0
 30 33  1  0  0  0
 35 36  1  0  0  0
M  END
> <minimizedAffinity>
-7.38036

> <CNNscore>
0.2274335772

> <CNNaffinity>
6.7500243187

> <CNN_VS>
1.5351821184

> <CNNaffinity_variance>
0.1273005009

$$$$



 42 47  0  0  0  0  0  0  0  0999 V2000
  -10.5582    3.6755  -23.9025 N   0  0  0  0  0  0  0  0  0  0  0  0
   -9.2986    2.8623  -23.8563 C   0  0  0  0  0  0  0  0  0  0  0  0
   -9.3722    1.3752  -23.6748 C   0  0  0  0  0  0  0  0  0  0  0  0
   -9.2889   -0.1122  -23.4998 C   0  0  0  0  0  0  0  0  0  0  0  0
  -10.0164   -1.0745  -23.3546 O   0  0  0  0  0  0  0  0  0  0  0  0
   -7.8400   -0.5001  -23.5124 N   0  0  0  0  0  0  0  0  0  0  0  0
   -7.0277    0.7476  -23.6952 C   0  0  0  0  0  0  0  0  0  0  0  0
   -7.9747    1.9066  -23.7957 C   0  0  0  0  0  0  0  0  0  0  0  0
  -10.7054    0.7012  -23.5395 C   0  0  0  0  0  0  0  0  0  0  0  0
  -10.7791   -0.7859  -23.3581 C   0  0  0  0  0  0  0  0  0  0  0  0
  -12.1123   -1.4599  -23.2228 C   0  0  0  0  0  0  0  0  0  0  0  0
  -12.1859   -2.9471  -23.0413 Cl  0  0  0  0  0  0  0  0  0  0  0  0
  -13.3718   -0.6467  -23.2690 C   0  0  0  0  0  0  0  0  0  0  0  0
  -13.2982    0.8405  -23.4504 C   0  0  0  0  0  0  0  0  0  0  0  0
  -11.9650    1.5144  -23.5857 C   0  0  0  0  0  0  0  0  0  0  0  0
  -11.8914    3.0016  -23.7672 C   0  0  0  0  0  0  0  0  0  0  0  0
  -13.1509    3.8148  -23.8133 O   0  0  0  0  0  0  0  0  0  0  0  0
   -7.2984   -1.8914  -23.3675 C   0  0  0  0  0  0  0  0  0  0  0  0
   -6.7330   -2.3432  -22.0536 C   0  0  0  0  0  0  0  0  0  0  0  0
   -6.1915   -3.7345  -21.9088 N   0  0  0  0  0  0  0  0  0  0  0  0
   -6.2153   -4.6740  -23.0778 C   0  0  0  0  0  0  0  0  0  0  0  0
   -6.7807   -4.2222  -24.3917 C   0  0  0  0  0  0  0  0  0  0  0  0
   -6.8045   -5.1618  -25.5608 C   0  0  0  0  0  0  0  0  0  0  0  0
   -7.3699   -4.7100  -26.8747 C   0  0  0  0  0  0  0  0  0  0  0  0
   -7.9115   -3.3187  -27.0195 C   0  0  0  0  0  0  0  0  0  0  0  0
   -7.8876   -2.3791  -25.8505 C   0  0  0  0  0  0  0  0  0  0  0  0
   -7.3222   -2.8309  -24.5366 C   0  0  0  0  0  0  0  0  0  0  0  0
  -10.4845    5.1627  -24.0839 C   0  0  0  0  0  0  0  0  0  0  0  0
  -12.2521    6.2718  -27.4596 C   0  0  0  0  0  0  0  0  0  0  0  0
  -12.0401    5.6705  -26.1019 N   0  0  0  0  0  0  0  0  0  0  0  0
  -10.6965    5.7640  -25.4417 C   0  0  0  0  0  0  0  0  0  0  0  0
   -9.5648    6.4588  -26.1393 O   0  0  0  0  0  0  0  0  0  0  0  0
  -12.7829    5.2145  -25.6440 H   0  0  0  0  0  0  0  0  0  0  0  0
   -7.5914    3.3445  -23.9839 C   0  0  0  0  0  0  0  0  0  0  0  0
   -6.9516    4.1036  -22.8594 N   0  0  0  0  0  0  0  0  0  0  0  0
   -7.4880    4.7276  -22.3189 H   0  0  0  0  0  0  0  0  0  0  0  0
   -5.4947    3.9119  -22.5585 C   0  0  0  0  0  0  0  0  0  0  0  0
   -4.4719    4.7959  -23.2085 C   0  0  0  0  0  0  0  0  0  0  0  0
   -3.0151    4.6042  -22.9075 N   0  0  0  0  0  0  0  0  0  0  0  0
   -2.5808    3.5285  -21.9565 C   0  0  0  0  0  0  0  0  0  0  0  0
   -3.6035    2.6446  -21.3065 C   0  0  0  0  0  0  0  0  0  0  0  0
   -5.0605    2.8362  -21.6074 N   0  0  0  0  0  0  0  0  0  0  0  0
 29 30  1  0  0  0
 30 31  1  0  0  0
 31 32  2  0  0  0
 31 28  1  0  0  0
 28  1  1  0  0  0
  1  2  1  0  0  0
  3  2  1  0  0  0
  3  4  1  0  0  0
  4  5  2  0  0  0
  4  6  1  0  0  0
  6 18  1  0  0  0
 18 19  2  0  0  0
 19 20  1  0  0  0
 20 21  2  0  0  0
 21 22  1  0  0  0
 22 23  2  0  0  0
 23 24  1  0  0  0
 24 25  2  0  0  0
 25 26  1  0  0  0
 26 27  2  0  0  0
  6  7  1  0  0  0
  7  8  1  0  0  0
  8 34  1  0  0  0
 34 35  1  0  0  0
 35 37  1  0  0  0
 37 38  2  0  0  0
 38 39  1  0  0  0
 39 40  2  0  0  0
 40 41  1  0  0  0
 41 42  2  0  0  0
  3  9  1  0  0  0
  9 10  2  0  0  0
 10 11  1  0  0  0
 11 12  1  0  0  0
 11 13  2  0  0  0
 13 14  1  0  0  0
 14 15  2  0  0  0
 15 16  1  0  0  0
 16 17  2  0  0  0
 16  1  1  0  0  0
  8  3  1  0  0  0
 42 37  1  0  0  0
 15  9  1  0  0  0
 27 18  1  0  0  0
 27 22  1  0  0  0
 30 33  1  0  0  0
 35 36  1  0  0  0
M  END
> <minimizedAffinity>
-7.16261

> <CNNscore>
0.2249666750

> <CNNaffinity>
6.5490746498

> <CNN_VS>
1.4733235836

> <CNNaffinity_variance>
0.2843576074

$$$$



 42 47  0  0  0  0  0  0  0  0999 V2000
   -6.5617   -0.4821  -22.4490 N   0  0  0  0  0  0  0  0  0  0  0  0
   -6.8074    0.7954  -23.1956 C   0  0  0  0  0  0  0  0  0  0  0  0
   -8.1819    1.1142  -23.7045 C   0  0  0  0  0  0  0  0  0  0  0  0
   -9.4956    1.5661  -24.2701 C   0  0  0  0  0  0  0  0  0  0  0  0
  -10.6496    1.1954  -24.3546 O   0  0  0  0  0  0  0  0  0  0  0  0
   -9.2828    2.8954  -24.9318 N   0  0  0  0  0  0  0  0  0  0  0  0
   -7.8375    3.2650  -24.7751 C   0  0  0  0  0  0  0  0  0  0  0  0
   -7.1571    2.1641  -24.0166 C   0  0  0  0  0  0  0  0  0  0  0  0
   -9.3108    0.1553  -23.4670 C   0  0  0  0  0  0  0  0  0  0  0  0
  -10.6853    0.4740  -23.9759 C   0  0  0  0  0  0  0  0  0  0  0  0
  -11.8140   -0.4848  -23.7383 C   0  0  0  0  0  0  0  0  0  0  0  0
  -13.1886   -0.1661  -24.2473 Cl  0  0  0  0  0  0  0  0  0  0  0  0
  -11.5682   -1.7624  -22.9917 C   0  0  0  0  0  0  0  0  0  0  0  0
  -10.1937   -2.0811  -22.4828 C   0  0  0  0  0  0  0  0  0  0  0  0
   -9.0650   -1.1223  -22.7204 C   0  0  0  0  0  0  0  0  0  0  0  0
   -7.6904   -1.4410  -22.2114 C   0  0  0  0  0  0  0  0  0  0  0  0
   -7.4447   -2.7186  -21.4648 O   0  0  0  0  0  0  0  0  0  0  0  0
  -10.3311    3.7117  -25.6279 C   0  0  0  0  0  0  0  0  0  0  0  0
  -10.2729    3.8963  -27.1153 C   0  0  0  0  0  0  0  0  0  0  0  0
  -11.3212    4.7127  -27.8114 N   0  0  0  0  0  0  0  0  0  0  0  0
  -12.4278    5.3444  -27.0200 C   0  0  0  0  0  0  0  0  0  0  0  0
  -12.4861    5.1598  -25.5326 C   0  0  0  0  0  0  0  0  0  0  0  0
  -13.5928    5.7916  -24.7411 C   0  0  0  0  0  0  0  0  0  0  0  0
  -13.6509    5.6069  -23.2537 C   0  0  0  0  0  0  0  0  0  0  0  0
  -12.6026    4.7906  -22.5576 C   0  0  0  0  0  0  0  0  0  0  0  0
  -11.4960    4.1589  -23.3490 C   0  0  0  0  0  0  0  0  0  0  0  0
  -11.4377    4.3435  -24.8365 C   0  0  0  0  0  0  0  0  0  0  0  0
   -5.1871   -0.8009  -21.9400 C   0  0  0  0  0  0  0  0  0  0  0  0
   -5.1021    0.1211  -18.0809 C   0  0  0  0  0  0  0  0  0  0  0  0
   -5.5629   -0.4356  -19.3953 N   0  0  0  0  0  0  0  0  0  0  0  0
   -4.7263   -0.2442  -20.6255 C   0  0  0  0  0  0  0  0  0  0  0  0
   -3.4289    0.5040  -20.5413 O   0  0  0  0  0  0  0  0  0  0  0  0
   -6.4144   -0.9266  -19.4506 H   0  0  0  0  0  0  0  0  0  0  0  0
   -5.7066    2.1209  -23.6369 C   0  0  0  0  0  0  0  0  0  0  0  0
   -4.6520    2.1162  -24.7034 N   0  0  0  0  0  0  0  0  0  0  0  0
   -4.8740    2.4098  -25.6165 H   0  0  0  0  0  0  0  0  0  0  0  0
   -3.2590    1.6641  -24.3788 C   0  0  0  0  0  0  0  0  0  0  0  0
   -2.6610    0.4962  -25.1057 C   0  0  0  0  0  0  0  0  0  0  0  0
   -1.2682    0.0441  -24.7811 N   0  0  0  0  0  0  0  0  0  0  0  0
   -0.4731    0.7600  -23.7297 C   0  0  0  0  0  0  0  0  0  0  0  0
   -1.0711    1.9280  -23.0028 C   0  0  0  0  0  0  0  0  0  0  0  0
   -2.4640    2.3800  -23.3274 N   0  0  0  0  0  0  0  0  0  0  0  0
 29 30  1  0  0  0
 30 31  1  0  0  0
 31 32  2  0  0  0
 31 28  1  0  0  0
 28  1  1  0  0  0
  1  2  1  0  0  0
  3  2  1  0  0  0
  3  4  1  0  0  0
  4  5  2  0  0  0
  4  6  1  0  0  0
  6 18  1  0  0  0
 18 19  2  0  0  0
 19 20  1  0  0  0
 20 21  2  0  0  0
 21 22  1  0  0  0
 22 23  2  0  0  0
 23 24  1  0  0  0
 24 25  2  0  0  0
 25 26  1  0  0  0
 26 27  2  0  0  0
  6  7  1  0  0  0
  7  8  1  0  0  0
  8 34  1  0  0  0
 34 35  1  0  0  0
 35 37  1  0  0  0
 37 38  2  0  0  0
 38 39  1  0  0  0
 39 40  2  0  0  0
 40 41  1  0  0  0
 41 42  2  0  0  0
  3  9  1  0  0  0
  9 10  2  0  0  0
 10 11  1  0  0  0
 11 12  1  0  0  0
 11 13  2  0  0  0
 13 14  1  0  0  0
 14 15  2  0  0  0
 15 16  1  0  0  0
 16 17  2  0  0  0
 16  1  1  0  0  0
  8  3  1  0  0  0
 42 37  1  0  0  0
 15  9  1  0  0  0
 27 18  1  0  0  0
 27 22  1  0  0  0
 30 33  1  0  0  0
 35 36  1  0  0  0
M  END
> <minimizedAffinity>
-7.62875

> <CNNscore>
0.1996628940

> <CNNaffinity>
6.3847751617

> <CNN_VS>
1.2748026848

> <CNNaffinity_variance>
0.1185692102

$$$$



 42 47  0  0  0  0  0  0  0  0999 V2000
   -3.6900    2.2155  -23.3734 N   0  0  0  0  0  0  0  0  0  0  0  0
   -4.9103    1.3433  -23.3663 C   0  0  0  0  0  0  0  0  0  0  0  0
   -6.2751    1.9625  -23.4281 C   0  0  0  0  0  0  0  0  0  0  0  0
   -7.6974    2.4357  -23.4849 C   0  0  0  0  0  0  0  0  0  0  0  0
   -8.3326    3.4697  -23.5462 O   0  0  0  0  0  0  0  0  0  0  0  0
   -8.5888    1.2296  -23.4549 N   0  0  0  0  0  0  0  0  0  0  0  0
   -7.7174    0.0110  -23.3795 C   0  0  0  0  0  0  0  0  0  0  0  0
   -6.2875    0.4640  -23.3629 C   0  0  0  0  0  0  0  0  0  0  0  0
   -6.4196    3.4540  -23.4969 C   0  0  0  0  0  0  0  0  0  0  0  0
   -7.7844    4.0732  -23.5587 C   0  0  0  0  0  0  0  0  0  0  0  0
   -7.9289    5.5646  -23.6275 C   0  0  0  0  0  0  0  0  0  0  0  0
   -9.2937    6.1839  -23.6892 Cl  0  0  0  0  0  0  0  0  0  0  0  0
   -6.7085    6.4368  -23.6345 C   0  0  0  0  0  0  0  0  0  0  0  0
   -5.3437    5.8176  -23.5728 C   0  0  0  0  0  0  0  0  0  0  0  0
   -5.1993    4.3262  -23.5039 C   0  0  0  0  0  0  0  0  0  0  0  0
   -3.8344    3.7069  -23.4422 C   0  0  0  0  0  0  0  0  0  0  0  0
   -2.6141    4.5791  -23.4492 O   0  0  0  0  0  0  0  0  0  0  0  0
  -10.0882    1.2403  -23.4935 C   0  0  0  0  0  0  0  0  0  0  0  0
  -10.8212    2.5089  -23.8152 C   0  0  0  0  0  0  0  0  0  0  0  0
  -12.3207    2.5196  -23.8538 N   0  0  0  0  0  0  0  0  0  0  0  0
  -13.0871    1.2617  -23.5707 C   0  0  0  0  0  0  0  0  0  0  0  0
  -12.3542   -0.0069  -23.2491 C   0  0  0  0  0  0  0  0  0  0  0  0
  -13.1207   -1.2648  -22.9660 C   0  0  0  0  0  0  0  0  0  0  0  0
  -12.3877   -2.5334  -22.6444 C   0  0  0  0  0  0  0  0  0  0  0  0
  -10.8882   -2.5441  -22.6058 C   0  0  0  0  0  0  0  0  0  0  0  0
  -10.1217   -1.2862  -22.8888 C   0  0  0  0  0  0  0  0  0  0  0  0
  -10.8547   -0.0176  -23.2105 C   0  0  0  0  0  0  0  0  0  0  0  0
   -2.3251    1.5962  -23.3116 C   0  0  0  0  0  0  0  0  0  0  0  0
    0.4943    3.3056  -21.1028 C   0  0  0  0  0  0  0  0  0  0  0  0
   -0.4137    3.0059  -22.2586 N   0  0  0  0  0  0  0  0  0  0  0  0
   -1.4172    1.8959  -22.1558 C   0  0  0  0  0  0  0  0  0  0  0  0
   -1.5128    1.0854  -20.8972 O   0  0  0  0  0  0  0  0  0  0  0  0
   -0.3509    3.5378  -23.0847 H   0  0  0  0  0  0  0  0  0  0  0  0
   -5.0817   -0.4255  -23.2934 C   0  0  0  0  0  0  0  0  0  0  0  0
   -4.9818   -1.4714  -22.2229 N   0  0  0  0  0  0  0  0  0  0  0  0
   -4.8440   -2.4149  -22.4679 H   0  0  0  0  0  0  0  0  0  0  0  0
   -5.0920   -1.0798  -20.7791 C   0  0  0  0  0  0  0  0  0  0  0  0
   -5.7828   -1.9887  -19.8062 C   0  0  0  0  0  0  0  0  0  0  0  0
   -5.8930   -1.5972  -18.3624 N   0  0  0  0  0  0  0  0  0  0  0  0
   -5.3123   -0.2967  -17.8915 C   0  0  0  0  0  0  0  0  0  0  0  0
   -4.6215    0.6122  -18.8645 C   0  0  0  0  0  0  0  0  0  0  0  0
   -4.5114    0.2206  -20.3083 N   0  0  0  0  0  0  0  0  0  0  0  0
 29 30  1  0  0  0
 30 31  1  0  0  0
 31 32  2  0  0  0
 31 28  1  0  0  0
 28  1  1  0  0  0
  1  2  1  0  0  0
  3  2  1  0  0  0
  3  4  1  0  0  0
  4  5  2  0  0  0
  4  6  1  0  0  0
  6 18  1  0  0  0
 18 19  2  0  0  0
 19 20  1  0  0  0
 20 21  2  0  0  0
 21 22  1  0  0  0
 22 23  2  0  0  0
 23 24  1  0  0  0
 24 25  2  0  0  0
 25 26  1  0  0  0
 26 27  2  0  0  0
  6  7  1  0  0  0
  7  8  1  0  0  0
  8 34  1  0  0  0
 34 35  1  0  0  0
 35 37  1  0  0  0
 37 38  2  0  0  0
 38 39  1  0  0  0
 39 40  2  0  0  0
 40 41  1  0  0  0
 41 42  2  0  0  0
  3  9  1  0  0  0
  9 10  2  0  0  0
 10 11  1  0  0  0
 11 12  1  0  0  0
 11 13  2  0  0  0
 13 14  1  0  0  0
 14 15  2  0  0  0
 15 16  1  0  0  0
 16 17  2  0  0  0
 16  1  1  0  0  0
  8  3  1  0  0  0
 42 37  1  0  0  0
 15  9  1  0  0  0
 27 18  1  0  0  0
 27 22  1  0  0  0
 30 33  1  0  0  0
 35 36  1  0  0  0
M  END
> <minimizedAffinity>
-8.29058

> <CNNscore>
0.1792634130

> <CNNaffinity>
6.2869415283

> <CNN_VS>
1.1270185709

> <CNNaffinity_variance>
0.4069253802

$$$$



 42 47  0  0  0  0  0  0  0  0999 V2000
   -7.1075   -3.4594  -22.5503 N   0  0  0  0  0  0  0  0  0  0  0  0
   -7.8467   -2.4730  -23.4051 C   0  0  0  0  0  0  0  0  0  0  0  0
   -7.5007   -1.0150  -23.3381 C   0  0  0  0  0  0  0  0  0  0  0  0
   -7.2666    0.4660  -23.3787 C   0  0  0  0  0  0  0  0  0  0  0  0
   -6.5571    1.3106  -22.8691 O   0  0  0  0  0  0  0  0  0  0  0  0
   -8.2251    1.0599  -24.3680 N   0  0  0  0  0  0  0  0  0  0  0  0
   -9.0515   -0.0542  -24.9388 C   0  0  0  0  0  0  0  0  0  0  0  0
   -8.6038   -1.3365  -24.3023 C   0  0  0  0  0  0  0  0  0  0  0  0
   -6.4153   -0.5434  -22.4163 C   0  0  0  0  0  0  0  0  0  0  0  0
   -6.0692    0.9146  -22.3493 C   0  0  0  0  0  0  0  0  0  0  0  0
   -4.9839    1.3862  -21.4276 C   0  0  0  0  0  0  0  0  0  0  0  0
   -4.6378    2.8442  -21.3605 Cl  0  0  0  0  0  0  0  0  0  0  0  0
   -4.2447    0.3998  -20.5728 C   0  0  0  0  0  0  0  0  0  0  0  0
   -4.5907   -1.0581  -20.6398 C   0  0  0  0  0  0  0  0  0  0  0  0
   -5.6760   -1.5297  -21.5616 C   0  0  0  0  0  0  0  0  0  0  0  0
   -6.0221   -2.9878  -21.6286 C   0  0  0  0  0  0  0  0  0  0  0  0
   -5.2829   -3.9741  -20.7739 O   0  0  0  0  0  0  0  0  0  0  0  0
   -8.3374    2.5127  -24.7239 C   0  0  0  0  0  0  0  0  0  0  0  0
   -7.1990    3.2067  -25.4113 C   0  0  0  0  0  0  0  0  0  0  0  0
   -7.3112    4.6595  -25.7672 N   0  0  0  0  0  0  0  0  0  0  0  0
   -8.5619    5.4183  -25.4358 C   0  0  0  0  0  0  0  0  0  0  0  0
   -9.7003    4.7244  -24.7484 C   0  0  0  0  0  0  0  0  0  0  0  0
  -10.9511    5.4833  -24.4169 C   0  0  0  0  0  0  0  0  0  0  0  0
  -12.0894    4.7893  -23.7295 C   0  0  0  0  0  0  0  0  0  0  0  0
  -11.9771    3.3364  -23.3736 C   0  0  0  0  0  0  0  0  0  0  0  0
  -10.7264    2.5776  -23.7050 C   0  0  0  0  0  0  0  0  0  0  0  0
   -9.5880    3.2716  -24.3924 C   0  0  0  0  0  0  0  0  0  0  0  0
   -7.4536   -4.9174  -22.6174 C   0  0  0  0  0  0  0  0  0  0  0  0
   -4.0650   -6.8202  -23.4219 C   0  0  0  0  0  0  0  0  0  0  0  0
   -5.1536   -5.7887  -23.4546 N   0  0  0  0  0  0  0  0  0  0  0  0
   -6.3650   -5.9489  -22.5847 C   0  0  0  0  0  0  0  0  0  0  0  0
   -6.4879   -7.1406  -21.6820 O   0  0  0  0  0  0  0  0  0  0  0  0
   -5.0729   -5.0065  -24.0470 H   0  0  0  0  0  0  0  0  0  0  0  0
   -9.1613   -2.7009  -24.5811 C   0  0  0  0  0  0  0  0  0  0  0  0
  -10.2285   -3.2706  -23.6944 N   0  0  0  0  0  0  0  0  0  0  0  0
  -10.1047   -4.1558  -23.2816 H   0  0  0  0  0  0  0  0  0  0  0  0
  -11.4843   -2.4918  -23.4365 C   0  0  0  0  0  0  0  0  0  0  0  0
  -11.7220   -1.1942  -24.1505 C   0  0  0  0  0  0  0  0  0  0  0  0
  -12.9777   -0.4154  -23.8927 N   0  0  0  0  0  0  0  0  0  0  0  0
  -13.9958   -0.9342  -22.9208 C   0  0  0  0  0  0  0  0  0  0  0  0
  -13.7581   -2.2317  -22.2069 C   0  0  0  0  0  0  0  0  0  0  0  0
  -12.5023   -3.0106  -22.4647 N   0  0  0  0  0  0  0  0  0  0  0  0
 29 30  1  0  0  0
 30 31  1  0  0  0
 31 32  2  0  0  0
 31 28  1  0  0  0
 28  1  1  0  0  0
  1  2  1  0  0  0
  3  2  1  0  0  0
  3  4  1  0  0  0
  4  5  2  0  0  0
  4  6  1  0  0  0
  6 18  1  0  0  0
 18 19  2  0  0  0
 19 20  1  0  0  0
 20 21  2  0  0  0
 21 22  1  0  0  0
 22 23  2  0  0  0
 23 24  1  0  0  0
 24 25  2  0  0  0
 25 26  1  0  0  0
 26 27  2  0  0  0
  6  7  1  0  0  0
  7  8  1  0  0  0
  8 34  1  0  0  0
 34 35  1  0  0  0
 35 37  1  0  0  0
 37 38  2  0  0  0
 38 39  1  0  0  0
 39 40  2  0  0  0
 40 41  1  0  0  0
 41 42  2  0  0  0
  3  9  1  0  0  0
  9 10  2  0  0  0
 10 11  1  0  0  0
 11 12  1  0  0  0
 11 13  2  0  0  0
 13 14  1  0  0  0
 14 15  2  0  0  0
 15 16  1  0  0  0
 16 17  2  0  0  0
 16  1  1  0  0  0
  8  3  1  0  0  0
 42 37  1  0  0  0
 15  9  1  0  0  0
 27 18  1  0  0  0
 27 22  1  0  0  0
 30 33  1  0  0  0
 35 36  1  0  0  0
M  END
> <minimizedAffinity>
-7.77394

> <CNNscore>
0.1783494502

> <CNNaffinity>
6.7258872986

> <CNN_VS>
1.1995582581

> <CNNaffinity_variance>
0.0903720036

$$$$
