


 35 40  0  0  0  0  0  0  0  0999 V2000
    7.4728   -3.3168   23.4772 C   0  0  0  0  0  0  0  0  0  0  0  0
    7.6809   -2.0464   22.7071 C   0  0  0  0  0  0  0  0  0  0  0  0
    6.5714   -1.7936   21.7299 C   0  0  0  0  0  0  0  0  0  0  0  0
    6.8683   -0.5096   21.0135 N   0  0  0  0  0  0  0  0  0  0  0  0
    8.1613    0.0311   21.5481 C   0  0  0  0  0  0  0  0  0  0  0  0
    8.8340    1.2991   21.1124 O   0  0  0  0  0  0  0  0  0  0  0  0
    8.6635   -0.9187   22.5948 C   0  0  0  0  0  0  0  0  0  0  0  0
    9.5522    0.2690   22.3719 C   0  0  0  0  0  0  0  0  0  0  0  0
   10.8153    0.4203   23.1667 N   0  0  0  0  0  0  0  0  0  0  0  0
   11.1897   -0.6159   24.1845 C   0  0  0  0  0  0  0  0  0  0  0  0
   12.4528   -0.4646   24.9793 O   0  0  0  0  0  0  0  0  0  0  0  0
   10.3010   -1.8037   24.4074 C   0  0  0  0  0  0  0  0  0  0  0  0
   10.6754   -2.8399   25.4252 C   0  0  0  0  0  0  0  0  0  0  0  0
    9.7868   -4.0276   25.6481 C   0  0  0  0  0  0  0  0  0  0  0  0
    8.5237   -4.1789   24.8533 C   0  0  0  0  0  0  0  0  0  0  0  0
    7.6350   -5.3667   25.0763 F   0  0  0  0  0  0  0  0  0  0  0  0
    8.1493   -3.1427   23.8356 C   0  0  0  0  0  0  0  0  0  0  0  0
    9.0379   -1.9550   23.6126 C   0  0  0  0  0  0  0  0  0  0  0  0
    6.0210    0.1227   19.9494 C   0  0  0  0  0  0  0  0  0  0  0  0
    6.4275    0.0228   18.5091 C   0  0  0  0  0  0  0  0  0  0  0  0
    5.5802    0.6551   17.4451 N   0  0  0  0  0  0  0  0  0  0  0  0
    4.3264    1.3873   17.8214 C   0  0  0  0  0  0  0  0  0  0  0  0
    3.9198    1.4872   19.2618 C   0  0  0  0  0  0  0  0  0  0  0  0
    2.6659    2.2195   19.6381 C   0  0  0  0  0  0  0  0  0  0  0  0
    2.2594    2.3194   21.0785 C   0  0  0  0  0  0  0  0  0  0  0  0
    3.1067    1.6871   22.1425 C   0  0  0  0  0  0  0  0  0  0  0  0
    4.3606    0.9549   21.7662 C   0  0  0  0  0  0  0  0  0  0  0  0
    4.7671    0.8550   20.3259 C   0  0  0  0  0  0  0  0  0  0  0  0
   11.7039    1.6081   22.9437 C   0  0  0  0  0  0  0  0  0  0  0  0
   11.1277    2.9925   22.9760 C   0  0  0  0  0  0  0  0  0  0  0  0
   11.8927    4.2704   22.7978 C   0  0  0  0  0  0  0  0  0  0  0  0
   10.9230    5.4098   22.9038 N   0  0  0  0  0  0  0  0  0  0  0  0
    9.5586    4.8363   23.1475 N   0  0  0  0  0  0  0  0  0  0  0  0
    9.6851    3.3423   23.1921 N   0  0  0  0  0  0  0  0  0  0  0  0
    8.7262    5.3501   23.2586 H   0  0  0  0  0  0  0  0  0  0  0  0
  2  1  1  0  0  0
  2  3  1  0  0  0
  3  4  1  0  0  0
  4 19  1  0  0  0
 19 20  2  0  0  0
 20 21  1  0  0  0
 21 22  2  0  0  0
 22 23  1  0  0  0
 23 24  2  0  0  0
 24 25  1  0  0  0
 25 26  2  0  0  0
 26 27  1  0  0  0
 27 28  2  0  0  0
  4  5  1  0  0  0
  5  6  2  0  0  0
  5  7  1  0  0  0
  7  8  1  0  0  0
  8  9  1  0  0  0
  9 29  1  0  0  0
 29 30  1  0  0  0
 30 31  1  0  0  0
 31 32  2  0  0  0
 32 33  1  0  0  0
 33 34  1  0  0  0
  9 10  1  0  0  0
 10 11  2  0  0  0
 10 12  1  0  0  0
 12 13  2  0  0  0
 13 14  1  0  0  0
 14 15  2  0  0  0
 15 16  1  0  0  0
 15 17  1  0  0  0
 17 18  2  0  0  0
  7  2  1  0  0  0
 34 30  2  0  0  0
 18 12  1  0  0  0
 28 19  1  0  0  0
 18  7  1  0  0  0
 28 23  1  0  0  0
 33 35  1  0  0  0
M  END
> <minimizedAffinity>
-10.06662

> <CNNscore>
0.6614161730

> <CNNaffinity>
6.8574991226

> <CNN_VS>
4.5356607437

> <CNNaffinity_variance>
0.1030627117

$$$$



 35 40  0  0  0  0  0  0  0  0999 V2000
    6.8666   -2.5038   24.3128 C   0  0  0  0  0  0  0  0  0  0  0  0
    7.2577   -1.4823   23.2864 C   0  0  0  0  0  0  0  0  0  0  0  0
    6.1603   -1.2341   22.2942 C   0  0  0  0  0  0  0  0  0  0  0  0
    6.6440   -0.2050   21.3160 N   0  0  0  0  0  0  0  0  0  0  0  0
    8.0402    0.1829   21.7035 C   0  0  0  0  0  0  0  0  0  0  0  0
    8.9052    1.1844   20.9973 O   0  0  0  0  0  0  0  0  0  0  0  0
    8.4195   -0.6065   22.9213 C   0  0  0  0  0  0  0  0  0  0  0  0
    9.4937    0.3214   22.4368 C   0  0  0  0  0  0  0  0  0  0  0  0
   10.8047    0.3949   23.1622 N   0  0  0  0  0  0  0  0  0  0  0  0
   11.0413   -0.4596   24.3720 C   0  0  0  0  0  0  0  0  0  0  0  0
   12.3522   -0.3862   25.0973 O   0  0  0  0  0  0  0  0  0  0  0  0
    9.9670   -1.3877   24.8566 C   0  0  0  0  0  0  0  0  0  0  0  0
   10.2036   -2.2422   26.0664 C   0  0  0  0  0  0  0  0  0  0  0  0
    9.1293   -3.1701   26.5509 C   0  0  0  0  0  0  0  0  0  0  0  0
    7.8184   -3.2436   25.8255 C   0  0  0  0  0  0  0  0  0  0  0  0
    6.7441   -4.1716   26.3101 F   0  0  0  0  0  0  0  0  0  0  0  0
    7.5818   -2.3891   24.6157 C   0  0  0  0  0  0  0  0  0  0  0  0
    8.6561   -1.4611   24.1312 C   0  0  0  0  0  0  0  0  0  0  0  0
    5.8677    0.3405   20.1542 C   0  0  0  0  0  0  0  0  0  0  0  0
    6.1932   -0.1048   18.7593 C   0  0  0  0  0  0  0  0  0  0  0  0
    5.4169    0.4407   17.5975 N   0  0  0  0  0  0  0  0  0  0  0  0
    4.3152    1.4316   17.8306 C   0  0  0  0  0  0  0  0  0  0  0  0
    3.9897    1.8770   19.2255 C   0  0  0  0  0  0  0  0  0  0  0  0
    2.8879    2.8679   19.4586 C   0  0  0  0  0  0  0  0  0  0  0  0
    2.5625    3.3132   20.8535 C   0  0  0  0  0  0  0  0  0  0  0  0
    3.3388    2.7676   22.0153 C   0  0  0  0  0  0  0  0  0  0  0  0
    4.4405    1.7768   21.7822 C   0  0  0  0  0  0  0  0  0  0  0  0
    4.7660    1.3314   20.3873 C   0  0  0  0  0  0  0  0  0  0  0  0
   11.8790    1.3229   22.6776 C   0  0  0  0  0  0  0  0  0  0  0  0
   11.6629    2.8067   22.7186 C   0  0  0  0  0  0  0  0  0  0  0  0
   10.3625    3.5009   22.9955 C   0  0  0  0  0  0  0  0  0  0  0  0
   10.6052    4.9800   22.9379 N   0  0  0  0  0  0  0  0  0  0  0  0
   12.0558    5.1999   22.6253 N   0  0  0  0  0  0  0  0  0  0  0  0
   12.7094    3.8567   22.4898 N   0  0  0  0  0  0  0  0  0  0  0  0
   12.5006    6.0726   22.5265 H   0  0  0  0  0  0  0  0  0  0  0  0
  2  1  1  0  0  0
  2  3  1  0  0  0
  3  4  1  0  0  0
  4 19  1  0  0  0
 19 20  2  0  0  0
 20 21  1  0  0  0
 21 22  2  0  0  0
 22 23  1  0  0  0
 23 24  2  0  0  0
 24 25  1  0  0  0
 25 26  2  0  0  0
 26 27  1  0  0  0
 27 28  2  0  0  0
  4  5  1  0  0  0
  5  6  2  0  0  0
  5  7  1  0  0  0
  7  8  1  0  0  0
  8  9  1  0  0  0
  9 29  1  0  0  0
 29 30  1  0  0  0
 30 31  1  0  0  0
 31 32  2  0  0  0
 32 33  1  0  0  0
 33 34  1  0  0  0
  9 10  1  0  0  0
 10 11  2  0  0  0
 10 12  1  0  0  0
 12 13  2  0  0  0
 13 14  1  0  0  0
 14 15  2  0  0  0
 15 16  1  0  0  0
 15 17  1  0  0  0
 17 18  2  0  0  0
  7  2  1  0  0  0
 34 30  2  0  0  0
 18 12  1  0  0  0
 28 19  1  0  0  0
 18  7  1  0  0  0
 28 23  1  0  0  0
 33 35  1  0  0  0
M  END
> <minimizedAffinity>
-9.25399

> <CNNscore>
0.5830234289

> <CNNaffinity>
6.8488569260

> <CNN_VS>
3.9930441380

> <CNNaffinity_variance>
0.1433507055

$$$$



 35 40  0  0  0  0  0  0  0  0999 V2000
    5.7740   -0.6014   26.7913 C   0  0  0  0  0  0  0  0  0  0  0  0
    6.5145   -0.2290   25.5410 C   0  0  0  0  0  0  0  0  0  0  0  0
    7.9915   -0.4541   25.6747 C   0  0  0  0  0  0  0  0  0  0  0  0
    8.6399   -0.0553   24.3822 N   0  0  0  0  0  0  0  0  0  0  0  0
    7.5636    0.4162   23.4498 C   0  0  0  0  0  0  0  0  0  0  0  0
    7.7655    0.9087   22.0474 O   0  0  0  0  0  0  0  0  0  0  0  0
    6.2501    0.3088   24.1660 C   0  0  0  0  0  0  0  0  0  0  0  0
    6.1404    0.8373   22.7665 C   0  0  0  0  0  0  0  0  0  0  0  0
    4.7981    1.2035   22.2061 N   0  0  0  0  0  0  0  0  0  0  0  0
    3.5654    1.0413   23.0452 C   0  0  0  0  0  0  0  0  0  0  0  0
    2.2231    1.4075   22.4847 O   0  0  0  0  0  0  0  0  0  0  0  0
    3.6750    0.5128   24.4447 C   0  0  0  0  0  0  0  0  0  0  0  0
    2.4423    0.3505   25.2838 C   0  0  0  0  0  0  0  0  0  0  0  0
    2.5519   -0.1780   26.6833 C   0  0  0  0  0  0  0  0  0  0  0  0
    3.8943   -0.5442   27.2437 C   0  0  0  0  0  0  0  0  0  0  0  0
    4.0039   -1.0727   28.6433 F   0  0  0  0  0  0  0  0  0  0  0  0
    5.1270   -0.3819   26.4047 C   0  0  0  0  0  0  0  0  0  0  0  0
    5.0173    0.1465   25.0052 C   0  0  0  0  0  0  0  0  0  0  0  0
   10.1070   -0.1171   24.0758 C   0  0  0  0  0  0  0  0  0  0  0  0
   10.7034    0.8223   23.0701 C   0  0  0  0  0  0  0  0  0  0  0  0
   12.1704    0.7605   22.7637 N   0  0  0  0  0  0  0  0  0  0  0  0
   13.0411   -0.2408   23.4632 C   0  0  0  0  0  0  0  0  0  0  0  0
   12.4447   -1.1803   24.4691 C   0  0  0  0  0  0  0  0  0  0  0  0
   13.3154   -2.1817   25.1686 C   0  0  0  0  0  0  0  0  0  0  0  0
   12.7189   -3.1211   26.1744 C   0  0  0  0  0  0  0  0  0  0  0  0
   11.2519   -3.0592   26.4807 C   0  0  0  0  0  0  0  0  0  0  0  0
   10.3812   -2.0579   25.7812 C   0  0  0  0  0  0  0  0  0  0  0  0
   10.9776   -1.1185   24.7754 C   0  0  0  0  0  0  0  0  0  0  0  0
    4.6885    1.7320   20.8065 C   0  0  0  0  0  0  0  0  0  0  0  0
    4.9021    0.8143   19.6394 C   0  0  0  0  0  0  0  0  0  0  0  0
    4.7711    1.1840   18.1916 C   0  0  0  0  0  0  0  0  0  0  0  0
    5.0722   -0.0360   17.3726 N   0  0  0  0  0  0  0  0  0  0  0  0
    5.3893   -1.1598   18.3142 N   0  0  0  0  0  0  0  0  0  0  0  0
    5.2841   -0.6342   19.7152 N   0  0  0  0  0  0  0  0  0  0  0  0
    5.6250   -2.0806   18.0577 H   0  0  0  0  0  0  0  0  0  0  0  0
  2  1  1  0  0  0
  2  3  1  0  0  0
  3  4  1  0  0  0
  4 19  1  0  0  0
 19 20  2  0  0  0
 20 21  1  0  0  0
 21 22  2  0  0  0
 22 23  1  0  0  0
 23 24  2  0  0  0
 24 25  1  0  0  0
 25 26  2  0  0  0
 26 27  1  0  0  0
 27 28  2  0  0  0
  4  5  1  0  0  0
  5  6  2  0  0  0
  5  7  1  0  0  0
  7  8  1  0  0  0
  8  9  1  0  0  0
  9 29  1  0  0  0
 29 30  1  0  0  0
 30 31  1  0  0  0
 31 32  2  0  0  0
 32 33  1  0  0  0
 33 34  1  0  0  0
  9 10  1  0  0  0
 10 11  2  0  0  0
 10 12  1  0  0  0
 12 13  2  0  0  0
 13 14  1  0  0  0
 14 15  2  0  0  0
 15 16  1  0  0  0
 15 17  1  0  0  0
 17 18  2  0  0  0
  7  2  1  0  0  0
 34 30  2  0  0  0
 18 12  1  0  0  0
 28 19  1  0  0  0
 18  7  1  0  0  0
 28 23  1  0  0  0
 33 35  1  0  0  0
M  END
> <minimizedAffinity>
-8.46454

> <CNNscore>
0.5509846807

> <CNNaffinity>
6.6491928101

> <CNN_VS>
3.6636033058

> <CNNaffinity_variance>
0.0653844029

$$$$



 35 40  0  0  0  0  0  0  0  0999 V2000
   10.9512   -3.3608   26.1436 C   0  0  0  0  0  0  0  0  0  0  0  0
    9.5666   -2.8651   25.8483 C   0  0  0  0  0  0  0  0  0  0  0  0
    8.5135   -3.7523   26.4431 C   0  0  0  0  0  0  0  0  0  0  0  0
    7.1724   -3.1772   26.0955 N   0  0  0  0  0  0  0  0  0  0  0  0
    7.3968   -1.9345   25.2859 C   0  0  0  0  0  0  0  0  0  0  0  0
    6.3289   -1.0415   24.7271 O   0  0  0  0  0  0  0  0  0  0  0  0
    8.8765   -1.7416   25.1331 C   0  0  0  0  0  0  0  0  0  0  0  0
    8.0509   -0.6837   24.4629 C   0  0  0  0  0  0  0  0  0  0  0  0
    8.7226    0.4360   23.7245 N   0  0  0  0  0  0  0  0  0  0  0  0
   10.2197    0.4978   23.6564 C   0  0  0  0  0  0  0  0  0  0  0  0
   10.8913    1.6175   22.9180 O   0  0  0  0  0  0  0  0  0  0  0  0
   11.0453   -0.5602   24.3266 C   0  0  0  0  0  0  0  0  0  0  0  0
   12.5425   -0.4984   24.2585 C   0  0  0  0  0  0  0  0  0  0  0  0
   13.3680   -1.5563   24.9287 C   0  0  0  0  0  0  0  0  0  0  0  0
   12.6964   -2.6760   25.6670 C   0  0  0  0  0  0  0  0  0  0  0  0
   13.5220   -3.7340   26.3372 F   0  0  0  0  0  0  0  0  0  0  0  0
   11.1992   -2.7378   25.7352 C   0  0  0  0  0  0  0  0  0  0  0  0
   10.3737   -1.6799   25.0650 C   0  0  0  0  0  0  0  0  0  0  0  0
    5.8408   -3.7449   26.4885 C   0  0  0  0  0  0  0  0  0  0  0  0
    5.0458   -4.5457   25.5003 C   0  0  0  0  0  0  0  0  0  0  0  0
    3.7142   -5.1135   25.8933 N   0  0  0  0  0  0  0  0  0  0  0  0
    3.1777   -4.8804   27.2746 C   0  0  0  0  0  0  0  0  0  0  0  0
    3.9728   -4.0796   28.2628 C   0  0  0  0  0  0  0  0  0  0  0  0
    3.4362   -3.8466   29.6441 C   0  0  0  0  0  0  0  0  0  0  0  0
    4.2314   -3.0458   30.6323 C   0  0  0  0  0  0  0  0  0  0  0  0
    5.5629   -2.4781   30.2392 C   0  0  0  0  0  0  0  0  0  0  0  0
    6.0994   -2.7111   28.8580 C   0  0  0  0  0  0  0  0  0  0  0  0
    5.3044   -3.5119   27.8698 C   0  0  0  0  0  0  0  0  0  0  0  0
    7.8969    1.4940   23.0543 C   0  0  0  0  0  0  0  0  0  0  0  0
    7.6948    2.8222   23.7213 C   0  0  0  0  0  0  0  0  0  0  0  0
    6.8181    3.0879   24.9090 C   0  0  0  0  0  0  0  0  0  0  0  0
    6.9153    4.5478   25.2395 N   0  0  0  0  0  0  0  0  0  0  0  0
    7.8521    5.1844   24.2560 N   0  0  0  0  0  0  0  0  0  0  0  0
    8.3339    4.1179   23.3178 N   0  0  0  0  0  0  0  0  0  0  0  0
    8.1062    6.1352   24.2308 H   0  0  0  0  0  0  0  0  0  0  0  0
  2  1  1  0  0  0
  2  3  1  0  0  0
  3  4  1  0  0  0
  4 19  1  0  0  0
 19 20  2  0  0  0
 20 21  1  0  0  0
 21 22  2  0  0  0
 22 23  1  0  0  0
 23 24  2  0  0  0
 24 25  1  0  0  0
 25 26  2  0  0  0
 26 27  1  0  0  0
 27 28  2  0  0  0
  4  5  1  0  0  0
  5  6  2  0  0  0
  5  7  1  0  0  0
  7  8  1  0  0  0
  8  9  1  0  0  0
  9 29  1  0  0  0
 29 30  1  0  0  0
 30 31  1  0  0  0
 31 32  2  0  0  0
 32 33  1  0  0  0
 33 34  1  0  0  0
  9 10  1  0  0  0
 10 11  2  0  0  0
 10 12  1  0  0  0
 12 13  2  0  0  0
 13 14  1  0  0  0
 14 15  2  0  0  0
 15 16  1  0  0  0
 15 17  1  0  0  0
 17 18  2  0  0  0
  7  2  1  0  0  0
 34 30  2  0  0  0
 18 12  1  0  0  0
 28 19  1  0  0  0
 18  7  1  0  0  0
 28 23  1  0  0  0
 33 35  1  0  0  0
M  END
> <minimizedAffinity>
-8.07300

> <CNNscore>
0.4854938388

> <CNNaffinity>
6.6486220360

> <CNN_VS>
3.2278649807

> <CNNaffinity_variance>
0.1884361506

$$$$



 35 40  0  0  0  0  0  0  0  0999 V2000
   10.8700   -1.8175   24.3785 C   0  0  0  0  0  0  0  0  0  0  0  0
    9.4335   -2.0687   24.0270 C   0  0  0  0  0  0  0  0  0  0  0  0
    8.9590   -3.4028   24.5220 C   0  0  0  0  0  0  0  0  0  0  0  0
    7.5213   -3.5602   24.1242 N   0  0  0  0  0  0  0  0  0  0  0  0
    7.1073   -2.3233   23.3835 C   0  0  0  0  0  0  0  0  0  0  0  0
    5.7497   -2.0552   22.8044 O   0  0  0  0  0  0  0  0  0  0  0  0
    8.2891   -1.4015   23.3234 C   0  0  0  0  0  0  0  0  0  0  0  0
    7.0599   -0.8619   22.6541 C   0  0  0  0  0  0  0  0  0  0  0  0
    7.0918    0.4897   22.0045 N   0  0  0  0  0  0  0  0  0  0  0  0
    8.3528    1.3018   22.0241 C   0  0  0  0  0  0  0  0  0  0  0  0
    8.3846    2.6534   21.3745 O   0  0  0  0  0  0  0  0  0  0  0  0
    9.5820    0.7622   22.6934 C   0  0  0  0  0  0  0  0  0  0  0  0
   10.8430    1.5743   22.7130 C   0  0  0  0  0  0  0  0  0  0  0  0
   12.0721    1.0347   23.3823 C   0  0  0  0  0  0  0  0  0  0  0  0
   12.0403   -0.3169   24.0320 C   0  0  0  0  0  0  0  0  0  0  0  0
   13.2696   -0.8565   24.7013 F   0  0  0  0  0  0  0  0  0  0  0  0
   10.7793   -1.1290   24.0123 C   0  0  0  0  0  0  0  0  0  0  0  0
    9.5502   -0.5894   23.3431 C   0  0  0  0  0  0  0  0  0  0  0  0
    6.6504   -4.7461   24.4160 C   0  0  0  0  0  0  0  0  0  0  0  0
    6.7714   -5.9882   23.5839 C   0  0  0  0  0  0  0  0  0  0  0  0
    5.9006   -7.1742   23.8757 N   0  0  0  0  0  0  0  0  0  0  0  0
    4.9088   -7.1179   24.9996 C   0  0  0  0  0  0  0  0  0  0  0  0
    4.7878   -5.8758   25.8317 C   0  0  0  0  0  0  0  0  0  0  0  0
    3.7959   -5.8196   26.9556 C   0  0  0  0  0  0  0  0  0  0  0  0
    3.6750   -4.5773   27.7876 C   0  0  0  0  0  0  0  0  0  0  0  0
    4.5458   -3.3915   27.4958 C   0  0  0  0  0  0  0  0  0  0  0  0
    5.5376   -3.4477   26.3720 C   0  0  0  0  0  0  0  0  0  0  0  0
    5.6586   -4.6898   25.5399 C   0  0  0  0  0  0  0  0  0  0  0  0
    5.8625    1.0293   21.3352 C   0  0  0  0  0  0  0  0  0  0  0  0
    5.5707    0.6774   19.9066 C   0  0  0  0  0  0  0  0  0  0  0  0
    6.3471   -0.2871   19.0598 C   0  0  0  0  0  0  0  0  0  0  0  0
    5.7074   -0.3325   17.7038 N   0  0  0  0  0  0  0  0  0  0  0  0
    4.5356    0.6040   17.7125 N   0  0  0  0  0  0  0  0  0  0  0  0
    4.4511    1.2281   19.0739 N   0  0  0  0  0  0  0  0  0  0  0  0
    3.9286    0.7784   16.9573 H   0  0  0  0  0  0  0  0  0  0  0  0
  2  1  1  0  0  0
  2  3  1  0  0  0
  3  4  1  0  0  0
  4 19  1  0  0  0
 19 20  2  0  0  0
 20 21  1  0  0  0
 21 22  2  0  0  0
 22 23  1  0  0  0
 23 24  2  0  0  0
 24 25  1  0  0  0
 25 26  2  0  0  0
 26 27  1  0  0  0
 27 28  2  0  0  0
  4  5  1  0  0  0
  5  6  2  0  0  0
  5  7  1  0  0  0
  7  8  1  0  0  0
  8  9  1  0  0  0
  9 29  1  0  0  0
 29 30  1  0  0  0
 30 31  1  0  0  0
 31 32  2  0  0  0
 32 33  1  0  0  0
 33 34  1  0  0  0
  9 10  1  0  0  0
 10 11  2  0  0  0
 10 12  1  0  0  0
 12 13  2  0  0  0
 13 14  1  0  0  0
 14 15  2  0  0  0
 15 16  1  0  0  0
 15 17  1  0  0  0
 17 18  2  0  0  0
  7  2  1  0  0  0
 34 30  2  0  0  0
 18 12  1  0  0  0
 28 19  1  0  0  0
 18  7  1  0  0  0
 28 23  1  0  0  0
 33 35  1  0  0  0
M  END
> <minimizedAffinity>
-9.08207

> <CNNscore>
0.4754624069

> <CNNaffinity>
6.7385244370

> <CNN_VS>
3.2039151192

> <CNNaffinity_variance>
0.0573822632

$$$$



 35 40  0  0  0  0  0  0  0  0999 V2000
   11.0131   -0.0138   22.5184 C   0  0  0  0  0  0  0  0  0  0  0  0
    9.6229   -0.5263   22.2842 C   0  0  0  0  0  0  0  0  0  0  0  0
    8.9084    0.2534   21.2204 C   0  0  0  0  0  0  0  0  0  0  0  0
    7.5362   -0.3310   21.0602 N   0  0  0  0  0  0  0  0  0  0  0  0
    7.4027   -1.4717   22.0250 C   0  0  0  0  0  0  0  0  0  0  0  0
    6.1920   -2.3394   22.2022 O   0  0  0  0  0  0  0  0  0  0  0  0
    8.6923   -1.5925   22.7815 C   0  0  0  0  0  0  0  0  0  0  0  0
    7.6567   -2.6033   23.1760 C   0  0  0  0  0  0  0  0  0  0  0  0
    7.9621   -3.6129   24.2425 N   0  0  0  0  0  0  0  0  0  0  0  0
    9.3031   -3.6117   24.9145 C   0  0  0  0  0  0  0  0  0  0  0  0
    9.6085   -4.6214   25.9809 O   0  0  0  0  0  0  0  0  0  0  0  0
   10.3388   -2.6009   24.5200 C   0  0  0  0  0  0  0  0  0  0  0  0
   11.6798   -2.5996   25.1920 C   0  0  0  0  0  0  0  0  0  0  0  0
   12.7154   -1.5888   24.7975 C   0  0  0  0  0  0  0  0  0  0  0  0
   12.4100   -0.5792   23.7310 C   0  0  0  0  0  0  0  0  0  0  0  0
   13.4457    0.4317   23.3365 F   0  0  0  0  0  0  0  0  0  0  0  0
   11.0690   -0.5804   23.0590 C   0  0  0  0  0  0  0  0  0  0  0  0
   10.0334   -1.5912   23.4535 C   0  0  0  0  0  0  0  0  0  0  0  0
    6.4826    0.1424   20.1033 C   0  0  0  0  0  0  0  0  0  0  0  0
    6.3575   -0.4939   18.7507 C   0  0  0  0  0  0  0  0  0  0  0  0
    5.3039   -0.0205   17.7938 N   0  0  0  0  0  0  0  0  0  0  0  0
    4.3753    1.0890   18.1894 C   0  0  0  0  0  0  0  0  0  0  0  0
    4.5004    1.7253   19.5420 C   0  0  0  0  0  0  0  0  0  0  0  0
    3.5717    2.8349   19.9377 C   0  0  0  0  0  0  0  0  0  0  0  0
    3.6969    3.4711   21.2903 C   0  0  0  0  0  0  0  0  0  0  0  0
    4.7505    2.9977   22.2472 C   0  0  0  0  0  0  0  0  0  0  0  0
    5.6791    1.8882   21.8515 C   0  0  0  0  0  0  0  0  0  0  0  0
    5.5540    1.2520   20.4990 C   0  0  0  0  0  0  0  0  0  0  0  0
    6.9264   -4.6238   24.6370 C   0  0  0  0  0  0  0  0  0  0  0  0
    6.1632   -5.3669   23.5809 C   0  0  0  0  0  0  0  0  0  0  0  0
    6.7091   -5.8382   22.2657 C   0  0  0  0  0  0  0  0  0  0  0  0
    5.6034   -6.5318   21.5266 N   0  0  0  0  0  0  0  0  0  0  0  0
    4.3740   -6.4890   22.3850 N   0  0  0  0  0  0  0  0  0  0  0  0
    4.7200   -5.7691   23.6546 N   0  0  0  0  0  0  0  0  0  0  0  0
    3.4944   -6.8671   22.1553 H   0  0  0  0  0  0  0  0  0  0  0  0
  2  1  1  0  0  0
  2  3  1  0  0  0
  3  4  1  0  0  0
  4 19  1  0  0  0
 19 20  2  0  0  0
 20 21  1  0  0  0
 21 22  2  0  0  0
 22 23  1  0  0  0
 23 24  2  0  0  0
 24 25  1  0  0  0
 25 26  2  0  0  0
 26 27  1  0  0  0
 27 28  2  0  0  0
  4  5  1  0  0  0
  5  6  2  0  0  0
  5  7  1  0  0  0
  7  8  1  0  0  0
  8  9  1  0  0  0
  9 29  1  0  0  0
 29 30  1  0  0  0
 30 31  1  0  0  0
 31 32  2  0  0  0
 32 33  1  0  0  0
 33 34  1  0  0  0
  9 10  1  0  0  0
 10 11  2  0  0  0
 10 12  1  0  0  0
 12 13  2  0  0  0
 13 14  1  0  0  0
 14 15  2  0  0  0
 15 16  1  0  0  0
 15 17  1  0  0  0
 17 18  2  0  0  0
  7  2  1  0  0  0
 34 30  2  0  0  0
 18 12  1  0  0  0
 28 19  1  0  0  0
 18  7  1  0  0  0
 28 23  1  0  0  0
 33 35  1  0  0  0
M  END
> <minimizedAffinity>
-9.49338

> <CNNscore>
0.4545850456

> <CNNaffinity>
6.7137575150

> <CNN_VS>
3.0519738197

> <CNNaffinity_variance>
0.1602586657

$$$$



 35 40  0  0  0  0  0  0  0  0999 V2000
   11.2593   -1.3629   24.8886 C   0  0  0  0  0  0  0  0  0  0  0  0
   10.5146   -0.3292   24.0967 C   0  0  0  0  0  0  0  0  0  0  0  0
   11.2898    0.9489   23.9716 C   0  0  0  0  0  0  0  0  0  0  0  0
   10.4676    1.9130   23.1688 N   0  0  0  0  0  0  0  0  0  0  0  0
    9.1843    1.2307   22.7977 C   0  0  0  0  0  0  0  0  0  0  0  0
    8.0680    1.8292   21.9941 O   0  0  0  0  0  0  0  0  0  0  0  0
    9.2133   -0.1550   23.3711 C   0  0  0  0  0  0  0  0  0  0  0  0
    7.9603    0.1646   22.6112 C   0  0  0  0  0  0  0  0  0  0  0  0
    6.8780   -0.8659   22.4818 N   0  0  0  0  0  0  0  0  0  0  0  0
    7.0489   -2.2162   23.1124 C   0  0  0  0  0  0  0  0  0  0  0  0
    5.9667   -3.2467   22.9831 O   0  0  0  0  0  0  0  0  0  0  0  0
    8.3021   -2.5359   23.8724 C   0  0  0  0  0  0  0  0  0  0  0  0
    8.4729   -3.8861   24.5030 C   0  0  0  0  0  0  0  0  0  0  0  0
    9.7260   -4.2057   25.2629 C   0  0  0  0  0  0  0  0  0  0  0  0
   10.8082   -3.1751   25.3923 C   0  0  0  0  0  0  0  0  0  0  0  0
   12.0614   -3.4948   26.1523 F   0  0  0  0  0  0  0  0  0  0  0  0
   10.6374   -1.8249   24.7617 C   0  0  0  0  0  0  0  0  0  0  0  0
    9.3843   -1.5053   24.0018 C   0  0  0  0  0  0  0  0  0  0  0  0
   10.8599    3.3134   22.8015 C   0  0  0  0  0  0  0  0  0  0  0  0
   12.2050    3.5807   22.1941 C   0  0  0  0  0  0  0  0  0  0  0  0
   12.5973    4.9811   21.8269 N   0  0  0  0  0  0  0  0  0  0  0  0
   11.6443    6.1143   22.0670 C   0  0  0  0  0  0  0  0  0  0  0  0
   10.2991    5.8470   22.6745 C   0  0  0  0  0  0  0  0  0  0  0  0
    9.3461    6.9803   22.9147 C   0  0  0  0  0  0  0  0  0  0  0  0
    8.0009    6.7129   23.5222 C   0  0  0  0  0  0  0  0  0  0  0  0
    7.6087    5.3125   23.8894 C   0  0  0  0  0  0  0  0  0  0  0  0
    8.5617    4.1793   23.6492 C   0  0  0  0  0  0  0  0  0  0  0  0
    9.9068    4.4466   23.0418 C   0  0  0  0  0  0  0  0  0  0  0  0
    5.6249   -0.5462   21.7218 C   0  0  0  0  0  0  0  0  0  0  0  0
    5.7012   -0.1832   20.2685 C   0  0  0  0  0  0  0  0  0  0  0  0
    6.9220   -0.2689   19.4012 C   0  0  0  0  0  0  0  0  0  0  0  0
    6.5454    0.1906   18.0239 N   0  0  0  0  0  0  0  0  0  0  0  0
    5.0917    0.5603   18.0399 N   0  0  0  0  0  0  0  0  0  0  0  0
    4.5700    0.3293   19.4271 N   0  0  0  0  0  0  0  0  0  0  0  0
    4.5715    0.8957   17.2744 H   0  0  0  0  0  0  0  0  0  0  0  0
  2  1  1  0  0  0
  2  3  1  0  0  0
  3  4  1  0  0  0
  4 19  1  0  0  0
 19 20  2  0  0  0
 20 21  1  0  0  0
 21 22  2  0  0  0
 22 23  1  0  0  0
 23 24  2  0  0  0
 24 25  1  0  0  0
 25 26  2  0  0  0
 26 27  1  0  0  0
 27 28  2  0  0  0
  4  5  1  0  0  0
  5  6  2  0  0  0
  5  7  1  0  0  0
  7  8  1  0  0  0
  8  9  1  0  0  0
  9 29  1  0  0  0
 29 30  1  0  0  0
 30 31  1  0  0  0
 31 32  2  0  0  0
 32 33  1  0  0  0
 33 34  1  0  0  0
  9 10  1  0  0  0
 10 11  2  0  0  0
 10 12  1  0  0  0
 12 13  2  0  0  0
 13 14  1  0  0  0
 14 15  2  0  0  0
 15 16  1  0  0  0
 15 17  1  0  0  0
 17 18  2  0  0  0
  7  2  1  0  0  0
 34 30  2  0  0  0
 18 12  1  0  0  0
 28 19  1  0  0  0
 18  7  1  0  0  0
 28 23  1  0  0  0
 33 35  1  0  0  0
M  END
> <minimizedAffinity>
-9.05037

> <CNNscore>
0.4182669222

> <CNNaffinity>
6.7185258865

> <CNN_VS>
2.8101370335

> <CNNaffinity_variance>
0.1059345156

$$$$



 35 40  0  0  0  0  0  0  0  0999 V2000
    9.1523   -0.9170   23.6850 C   0  0  0  0  0  0  0  0  0  0  0  0
    7.9883   -1.3176   22.8278 C   0  0  0  0  0  0  0  0  0  0  0  0
    7.5926   -0.2301   21.8735 C   0  0  0  0  0  0  0  0  0  0  0  0
    6.4285   -0.7228   21.0661 N   0  0  0  0  0  0  0  0  0  0  0  0
    6.1047   -2.1149   21.5214 C   0  0  0  0  0  0  0  0  0  0  0  0
    5.0092   -2.9864   20.9825 O   0  0  0  0  0  0  0  0  0  0  0  0
    7.0688   -2.4825   22.6102 C   0  0  0  0  0  0  0  0  0  0  0  0
    6.0795   -3.5611   22.2815 C   0  0  0  0  0  0  0  0  0  0  0  0
    6.1174   -4.8647   23.0225 N   0  0  0  0  0  0  0  0  0  0  0  0
    7.1444   -5.0898   24.0922 C   0  0  0  0  0  0  0  0  0  0  0  0
    7.1823   -6.3934   24.8333 O   0  0  0  0  0  0  0  0  0  0  0  0
    8.1338   -4.0112   24.4210 C   0  0  0  0  0  0  0  0  0  0  0  0
    9.1608   -4.2363   25.4907 C   0  0  0  0  0  0  0  0  0  0  0  0
   10.1501   -3.1578   25.8195 C   0  0  0  0  0  0  0  0  0  0  0  0
   10.1122   -1.8541   25.0784 C   0  0  0  0  0  0  0  0  0  0  0  0
   11.1016   -0.7756   25.4072 F   0  0  0  0  0  0  0  0  0  0  0  0
    9.0852   -1.6290   24.0087 C   0  0  0  0  0  0  0  0  0  0  0  0
    8.0959   -2.7076   23.6800 C   0  0  0  0  0  0  0  0  0  0  0  0
    5.7136    0.0422   19.9920 C   0  0  0  0  0  0  0  0  0  0  0  0
    6.1912   -0.0344   18.5722 C   0  0  0  0  0  0  0  0  0  0  0  0
    5.4763    0.7306   17.4982 N   0  0  0  0  0  0  0  0  0  0  0  0
    4.2837    1.5722   17.8439 C   0  0  0  0  0  0  0  0  0  0  0  0
    3.8061    1.6487   19.2638 C   0  0  0  0  0  0  0  0  0  0  0  0
    2.6134    2.4903   19.6096 C   0  0  0  0  0  0  0  0  0  0  0  0
    2.1359    2.5668   21.0294 C   0  0  0  0  0  0  0  0  0  0  0  0
    2.8508    1.8018   22.1034 C   0  0  0  0  0  0  0  0  0  0  0  0
    4.0433    0.9603   21.7577 C   0  0  0  0  0  0  0  0  0  0  0  0
    4.5210    0.8837   20.3379 C   0  0  0  0  0  0  0  0  0  0  0  0
    5.1280   -5.9433   22.6937 C   0  0  0  0  0  0  0  0  0  0  0  0
    3.8695   -6.0773   23.4988 C   0  0  0  0  0  0  0  0  0  0  0  0
    2.5914   -6.7127   23.0376 C   0  0  0  0  0  0  0  0  0  0  0  0
    1.6001   -6.6277   24.1601 N   0  0  0  0  0  0  0  0  0  0  0  0
    2.2656   -5.9397   25.3151 N   0  0  0  0  0  0  0  0  0  0  0  0
    3.6681   -5.5996   24.9064 N   0  0  0  0  0  0  0  0  0  0  0  0
    1.8540   -5.7455   26.1881 H   0  0  0  0  0  0  0  0  0  0  0  0
  2  1  1  0  0  0
  2  3  1  0  0  0
  3  4  1  0  0  0
  4 19  1  0  0  0
 19 20  2  0  0  0
 20 21  1  0  0  0
 21 22  2  0  0  0
 22 23  1  0  0  0
 23 24  2  0  0  0
 24 25  1  0  0  0
 25 26  2  0  0  0
 26 27  1  0  0  0
 27 28  2  0  0  0
  4  5  1  0  0  0
  5  6  2  0  0  0
  5  7  1  0  0  0
  7  8  1  0  0  0
  8  9  1  0  0  0
  9 29  1  0  0  0
 29 30  1  0  0  0
 30 31  1  0  0  0
 31 32  2  0  0  0
 32 33  1  0  0  0
 33 34  1  0  0  0
  9 10  1  0  0  0
 10 11  2  0  0  0
 10 12  1  0  0  0
 12 13  2  0  0  0
 13 14  1  0  0  0
 14 15  2  0  0  0
 15 16  1  0  0  0
 15 17  1  0  0  0
 17 18  2  0  0  0
  7  2  1  0  0  0
 34 30  2  0  0  0
 18 12  1  0  0  0
 28 19  1  0  0  0
 18  7  1  0  0  0
 28 23  1  0  0  0
 33 35  1  0  0  0
M  END
> <minimizedAffinity>
-8.25791

> <CNNscore>
0.4082374573

> <CNNaffinity>
6.4486913681

> <CNN_VS>
2.6325974464

> <CNNaffinity_variance>
0.0276931860

$$$$



 35 40  0  0  0  0  0  0  0  0999 V2000
   10.4402   -3.4803   25.2644 C   0  0  0  0  0  0  0  0  0  0  0  0
    9.1806   -3.2296   24.4894 C   0  0  0  0  0  0  0  0  0  0  0  0
    8.1939   -4.3488   24.6434 C   0  0  0  0  0  0  0  0  0  0  0  0
    6.9761   -4.0075   23.8369 N   0  0  0  0  0  0  0  0  0  0  0  0
    7.2102   -2.6772   23.1844 C   0  0  0  0  0  0  0  0  0  0  0  0
    6.2504   -1.9547   22.2863 O   0  0  0  0  0  0  0  0  0  0  0  0
    8.5727   -2.1965   23.5877 C   0  0  0  0  0  0  0  0  0  0  0  0
    7.8390   -1.2570   22.6772 C   0  0  0  0  0  0  0  0  0  0  0  0
    8.4808    0.0308   22.2532 N   0  0  0  0  0  0  0  0  0  0  0  0
    9.8562    0.3791   22.7396 C   0  0  0  0  0  0  0  0  0  0  0  0
   10.4980    1.6668   22.3156 O   0  0  0  0  0  0  0  0  0  0  0  0
   10.5900   -0.5605   23.6502 C   0  0  0  0  0  0  0  0  0  0  0  0
   11.9655   -0.2122   24.1366 C   0  0  0  0  0  0  0  0  0  0  0  0
   12.6992   -1.1517   25.0471 C   0  0  0  0  0  0  0  0  0  0  0  0
   12.0574   -2.4394   25.4711 C   0  0  0  0  0  0  0  0  0  0  0  0
   12.7912   -3.3790   26.3816 F   0  0  0  0  0  0  0  0  0  0  0  0
   10.6819   -2.7877   24.9846 C   0  0  0  0  0  0  0  0  0  0  0  0
    9.9482   -1.8482   24.0742 C   0  0  0  0  0  0  0  0  0  0  0  0
    5.7411   -4.8486   23.7058 C   0  0  0  0  0  0  0  0  0  0  0  0
    5.4163   -5.5051   22.3969 C   0  0  0  0  0  0  0  0  0  0  0  0
    4.1812   -6.3462   22.2659 N   0  0  0  0  0  0  0  0  0  0  0  0
    3.2711   -6.5309   23.4438 C   0  0  0  0  0  0  0  0  0  0  0  0
    3.5960   -5.8743   24.7528 C   0  0  0  0  0  0  0  0  0  0  0  0
    2.6858   -6.0590   25.9308 C   0  0  0  0  0  0  0  0  0  0  0  0
    3.0108   -5.4024   27.2398 C   0  0  0  0  0  0  0  0  0  0  0  0
    4.2458   -4.5613   27.3707 C   0  0  0  0  0  0  0  0  0  0  0  0
    5.1559   -4.3767   26.1928 C   0  0  0  0  0  0  0  0  0  0  0  0
    4.8310   -5.0332   24.8839 C   0  0  0  0  0  0  0  0  0  0  0  0
    7.7470    0.9703   21.3427 C   0  0  0  0  0  0  0  0  0  0  0  0
    6.8215    0.4286   20.2939 C   0  0  0  0  0  0  0  0  0  0  0  0
    7.2165   -0.4247   19.1252 C   0  0  0  0  0  0  0  0  0  0  0  0
    5.9777   -0.7357   18.3386 N   0  0  0  0  0  0  0  0  0  0  0  0
    4.8171   -0.0746   19.0212 N   0  0  0  0  0  0  0  0  0  0  0  0
    5.3386    0.6450   20.2296 N   0  0  0  0  0  0  0  0  0  0  0  0
    3.8779   -0.1072   18.7276 H   0  0  0  0  0  0  0  0  0  0  0  0
  2  1  1  0  0  0
  2  3  1  0  0  0
  3  4  1  0  0  0
  4 19  1  0  0  0
 19 20  2  0  0  0
 20 21  1  0  0  0
 21 22  2  0  0  0
 22 23  1  0  0  0
 23 24  2  0  0  0
 24 25  1  0  0  0
 25 26  2  0  0  0
 26 27  1  0  0  0
 27 28  2  0  0  0
  4  5  1  0  0  0
  5  6  2  0  0  0
  5  7  1  0  0  0
  7  8  1  0  0  0
  8  9  1  0  0  0
  9 29  1  0  0  0
 29 30  1  0  0  0
 30 31  1  0  0  0
 31 32  2  0  0  0
 32 33  1  0  0  0
 33 34  1  0  0  0
  9 10  1  0  0  0
 10 11  2  0  0  0
 10 12  1  0  0  0
 12 13  2  0  0  0
 13 14  1  0  0  0
 14 15  2  0  0  0
 15 16  1  0  0  0
 15 17  1  0  0  0
 17 18  2  0  0  0
  7  2  1  0  0  0
 34 30  2  0  0  0
 18 12  1  0  0  0
 28 19  1  0  0  0
 18  7  1  0  0  0
 28 23  1  0  0  0
 33 35  1  0  0  0
M  END
> <minimizedAffinity>
-9.21303

> <CNNscore>
0.3948162496

> <CNNaffinity>
6.6221160889

> <CNN_VS>
2.6145191193

> <CNNaffinity_variance>
0.1046431214

$$$$
