


 35 40  0  0  0  0  0  0  0  0999 V2000
   10.5323    0.3045   23.1995 N   0  0  0  0  0  0  0  0  0  0  0  0
    9.1322   -0.2002   23.3861 C   0  0  0  0  0  0  0  0  0  0  0  0
    8.8645   -1.3399   24.3239 C   0  0  0  0  0  0  0  0  0  0  0  0
    8.4454   -2.4654   25.2225 C   0  0  0  0  0  0  0  0  0  0  0  0
    8.9279   -3.2649   26.0000 O   0  0  0  0  0  0  0  0  0  0  0  0
    6.9594   -2.6288   25.0987 N   0  0  0  0  0  0  0  0  0  0  0  0
    6.4602   -1.6043   24.1235 C   0  0  0  0  0  0  0  0  0  0  0  0
    7.6375   -0.8076   23.6447 C   0  0  0  0  0  0  0  0  0  0  0  0
    7.5953    0.3228   22.6596 C   0  0  0  0  0  0  0  0  0  0  0  0
    9.9970   -1.9749   25.0752 C   0  0  0  0  0  0  0  0  0  0  0  0
    9.7293   -3.1145   26.0130 C   0  0  0  0  0  0  0  0  0  0  0  0
   10.8617   -3.7494   26.7642 C   0  0  0  0  0  0  0  0  0  0  0  0
   10.5941   -4.8892   27.7020 F   0  0  0  0  0  0  0  0  0  0  0  0
   12.2619   -3.2447   26.5776 C   0  0  0  0  0  0  0  0  0  0  0  0
   12.5296   -2.1051   25.6398 C   0  0  0  0  0  0  0  0  0  0  0  0
   11.3971   -1.4701   24.8886 C   0  0  0  0  0  0  0  0  0  0  0  0
   11.6648   -0.3304   23.9507 C   0  0  0  0  0  0  0  0  0  0  0  0
   13.0649    0.1743   23.7641 O   0  0  0  0  0  0  0  0  0  0  0  0
    6.1202   -3.6394   25.8228 C   0  0  0  0  0  0  0  0  0  0  0  0
    5.7450   -4.9251   25.1474 C   0  0  0  0  0  0  0  0  0  0  0  0
    4.9057   -5.9357   25.8715 N   0  0  0  0  0  0  0  0  0  0  0  0
    4.4417   -5.6605   27.2711 C   0  0  0  0  0  0  0  0  0  0  0  0
    4.8169   -4.3748   27.9466 C   0  0  0  0  0  0  0  0  0  0  0  0
    4.3528   -4.0997   29.3463 C   0  0  0  0  0  0  0  0  0  0  0  0
    4.7281   -2.8140   30.0217 C   0  0  0  0  0  0  0  0  0  0  0  0
    5.5673   -1.8034   29.2975 C   0  0  0  0  0  0  0  0  0  0  0  0
    6.0314   -2.0786   27.8979 C   0  0  0  0  0  0  0  0  0  0  0  0
    5.6562   -3.3643   27.2224 C   0  0  0  0  0  0  0  0  0  0  0  0
   10.8000    1.4442   22.2617 C   0  0  0  0  0  0  0  0  0  0  0  0
   10.8177    6.6566   23.1048 C   0  0  0  0  0  0  0  0  0  0  0  0
   10.3698    5.2282   23.0114 C   0  0  0  0  0  0  0  0  0  0  0  0
   11.2086    4.0687   22.5621 C   0  0  0  0  0  0  0  0  0  0  0  0
   10.3616    2.8323   22.6239 C   0  0  0  0  0  0  0  0  0  0  0  0
    8.9992    3.2276   23.1114 O   0  0  0  0  0  0  0  0  0  0  0  0
    9.0043    4.7084   23.3509 N   0  0  0  0  0  0  0  0  0  0  0  0
 30 31  1  0  0  0
 31 32  1  0  0  0
 32 33  2  0  0  0
 33 29  1  0  0  0
 29  1  1  0  0  0
  1  2  1  0  0  0
  3  2  1  0  0  0
  3  4  1  0  0  0
  4  5  2  0  0  0
  4  6  1  0  0  0
  6 19  1  0  0  0
 19 20  2  0  0  0
 20 21  1  0  0  0
 21 22  2  0  0  0
 22 23  1  0  0  0
 23 24  2  0  0  0
 24 25  1  0  0  0
 25 26  2  0  0  0
 26 27  1  0  0  0
 27 28  2  0  0  0
  6  7  1  0  0  0
  7  8  1  0  0  0
  8  9  1  0  0  0
  3 10  1  0  0  0
 10 11  2  0  0  0
 11 12  1  0  0  0
 12 13  1  0  0  0
 12 14  2  0  0  0
 14 15  1  0  0  0
 15 16  2  0  0  0
 16 17  1  0  0  0
 17 18  2  0  0  0
 33 34  1  0  0  0
 34 35  1  0  0  0
 35 31  2  0  0  0
 17  1  1  0  0  0
  8  3  1  0  0  0
 16 10  1  0  0  0
 28 19  1  0  0  0
 28 23  1  0  0  0
M  END
> <minimizedAffinity>
-7.90574

> <CNNscore>
0.3121821582

> <CNNaffinity>
6.5758409500

> <CNN_VS>
2.0528602600

> <CNNaffinity_variance>
0.1495432556

$$$$



 35 40  0  0  0  0  0  0  0  0999 V2000
    7.3881   -3.6297   23.2853 N   0  0  0  0  0  0  0  0  0  0  0  0
    7.4720   -2.2318   22.7479 C   0  0  0  0  0  0  0  0  0  0  0  0
    8.6119   -1.3422   23.1465 C   0  0  0  0  0  0  0  0  0  0  0  0
    9.6870   -0.3423   23.4541 C   0  0  0  0  0  0  0  0  0  0  0  0
   10.7068   -0.2433   24.1072 O   0  0  0  0  0  0  0  0  0  0  0  0
    9.3750    0.9191   22.7048 N   0  0  0  0  0  0  0  0  0  0  0  0
    8.1070    0.6989   21.9342 C   0  0  0  0  0  0  0  0  0  0  0  0
    7.6355   -0.6986   22.2072 C   0  0  0  0  0  0  0  0  0  0  0  0
    6.4037   -1.3400   21.6403 C   0  0  0  0  0  0  0  0  0  0  0  0
    9.6681   -1.8504   24.0827 C   0  0  0  0  0  0  0  0  0  0  0  0
   10.8081   -0.9608   24.4813 C   0  0  0  0  0  0  0  0  0  0  0  0
   11.8641   -1.4690   25.4174 C   0  0  0  0  0  0  0  0  0  0  0  0
   13.0042   -0.5793   25.8161 F   0  0  0  0  0  0  0  0  0  0  0  0
   11.7803   -2.8669   25.9549 C   0  0  0  0  0  0  0  0  0  0  0  0
   10.6403   -3.7566   25.5562 C   0  0  0  0  0  0  0  0  0  0  0  0
    9.5842   -3.2483   24.6201 C   0  0  0  0  0  0  0  0  0  0  0  0
    8.4442   -4.1380   24.2214 C   0  0  0  0  0  0  0  0  0  0  0  0
    8.3603   -5.5359   24.7589 O   0  0  0  0  0  0  0  0  0  0  0  0
   10.1881    2.1794   22.7230 C   0  0  0  0  0  0  0  0  0  0  0  0
   11.6698    2.1194   22.4971 C   0  0  0  0  0  0  0  0  0  0  0  0
   12.4829    3.3798   22.5153 N   0  0  0  0  0  0  0  0  0  0  0  0
   11.8144    4.7001   22.7594 C   0  0  0  0  0  0  0  0  0  0  0  0
   10.3327    4.7602   22.9853 C   0  0  0  0  0  0  0  0  0  0  0  0
    9.6641    6.0806   23.2294 C   0  0  0  0  0  0  0  0  0  0  0  0
    8.1824    6.1406   23.4553 C   0  0  0  0  0  0  0  0  0  0  0  0
    7.3693    4.8802   23.4371 C   0  0  0  0  0  0  0  0  0  0  0  0
    8.0378    3.5599   23.1930 C   0  0  0  0  0  0  0  0  0  0  0  0
    9.5195    3.4998   22.9671 C   0  0  0  0  0  0  0  0  0  0  0  0
    6.2481   -4.5194   22.8866 C   0  0  0  0  0  0  0  0  0  0  0  0
    3.8493   -6.8642   26.9644 C   0  0  0  0  0  0  0  0  0  0  0  0
    4.6431   -6.6437   25.7110 C   0  0  0  0  0  0  0  0  0  0  0  0
    4.9172   -5.3192   25.0624 C   0  0  0  0  0  0  0  0  0  0  0  0
    5.7457   -5.5659   23.8366 C   0  0  0  0  0  0  0  0  0  0  0  0
    5.9837   -7.0430   23.7275 O   0  0  0  0  0  0  0  0  0  0  0  0
    5.3022   -7.7090   24.8860 N   0  0  0  0  0  0  0  0  0  0  0  0
 30 31  1  0  0  0
 31 32  1  0  0  0
 32 33  2  0  0  0
 33 29  1  0  0  0
 29  1  1  0  0  0
  1  2  1  0  0  0
  3  2  1  0  0  0
  3  4  1  0  0  0
  4  5  2  0  0  0
  4  6  1  0  0  0
  6 19  1  0  0  0
 19 20  2  0  0  0
 20 21  1  0  0  0
 21 22  2  0  0  0
 22 23  1  0  0  0
 23 24  2  0  0  0
 24 25  1  0  0  0
 25 26  2  0  0  0
 26 27  1  0  0  0
 27 28  2  0  0  0
  6  7  1  0  0  0
  7  8  1  0  0  0
  8  9  1  0  0  0
  3 10  1  0  0  0
 10 11  2  0  0  0
 11 12  1  0  0  0
 12 13  1  0  0  0
 12 14  2  0  0  0
 14 15  1  0  0  0
 15 16  2  0  0  0
 16 17  1  0  0  0
 17 18  2  0  0  0
 33 34  1  0  0  0
 34 35  1  0  0  0
 35 31  2  0  0  0
 17  1  1  0  0  0
  8  3  1  0  0  0
 16 10  1  0  0  0
 28 19  1  0  0  0
 28 23  1  0  0  0
M  END
> <minimizedAffinity>
-8.29947

> <CNNscore>
0.2640802562

> <CNNaffinity>
6.4710607529

> <CNN_VS>
1.7088793516

> <CNNaffinity_variance>
0.1895273179

$$$$



 35 40  0  0  0  0  0  0  0  0999 V2000
    7.5698   -1.4817   24.0574 N   0  0  0  0  0  0  0  0  0  0  0  0
    7.5004    0.0059   23.8777 C   0  0  0  0  0  0  0  0  0  0  0  0
    8.7407    0.7793   23.5411 C   0  0  0  0  0  0  0  0  0  0  0  0
    9.8911    1.6814   23.2049 C   0  0  0  0  0  0  0  0  0  0  0  0
   11.0847    1.6250   22.9847 O   0  0  0  0  0  0  0  0  0  0  0  0
    9.3702    3.0856   23.1220 N   0  0  0  0  0  0  0  0  0  0  0  0
    7.8979    3.0514   23.4070 C   0  0  0  0  0  0  0  0  0  0  0  0
    7.5089    1.6260   23.6660 C   0  0  0  0  0  0  0  0  0  0  0  0
    6.1301    1.1338   23.9925 C   0  0  0  0  0  0  0  0  0  0  0  0
   10.0505    0.0652   23.3841 C   0  0  0  0  0  0  0  0  0  0  0  0
   11.2908    0.8386   23.0475 C   0  0  0  0  0  0  0  0  0  0  0  0
   12.6005    0.1244   22.8905 C   0  0  0  0  0  0  0  0  0  0  0  0
   13.8409    0.8978   22.5539 F   0  0  0  0  0  0  0  0  0  0  0  0
   12.6698   -1.3632   23.0702 C   0  0  0  0  0  0  0  0  0  0  0  0
   11.4295   -2.1366   23.4069 C   0  0  0  0  0  0  0  0  0  0  0  0
   10.1199   -1.4224   23.5638 C   0  0  0  0  0  0  0  0  0  0  0  0
    8.8794   -2.1958   23.9005 C   0  0  0  0  0  0  0  0  0  0  0  0
    8.9488   -3.6834   24.0802 O   0  0  0  0  0  0  0  0  0  0  0  0
   10.1795    4.3092   22.8091 C   0  0  0  0  0  0  0  0  0  0  0  0
   11.5226    4.1731   22.1552 C   0  0  0  0  0  0  0  0  0  0  0  0
   12.3319    5.3966   21.8423 N   0  0  0  0  0  0  0  0  0  0  0  0
   11.7981    6.7563   22.1833 C   0  0  0  0  0  0  0  0  0  0  0  0
   10.4550    6.8924   22.8373 C   0  0  0  0  0  0  0  0  0  0  0  0
    9.9212    8.2522   23.1784 C   0  0  0  0  0  0  0  0  0  0  0  0
    8.5782    8.3882   23.8324 C   0  0  0  0  0  0  0  0  0  0  0  0
    7.7689    7.1646   24.1452 C   0  0  0  0  0  0  0  0  0  0  0  0
    8.3026    5.8049   23.8042 C   0  0  0  0  0  0  0  0  0  0  0  0
    9.6457    5.6688   23.1502 C   0  0  0  0  0  0  0  0  0  0  0  0
    6.3293   -2.2551   24.3941 C   0  0  0  0  0  0  0  0  0  0  0  0
    5.6721   -2.6187   29.6206 C   0  0  0  0  0  0  0  0  0  0  0  0
    5.4317   -2.3240   28.1697 C   0  0  0  0  0  0  0  0  0  0  0  0
    6.3778   -2.6142   27.0424 C   0  0  0  0  0  0  0  0  0  0  0  0
    5.7338   -2.1568   25.7673 C   0  0  0  0  0  0  0  0  0  0  0  0
    4.3896   -1.5838   26.1064 O   0  0  0  0  0  0  0  0  0  0  0  0
    4.2030   -1.6871   27.5912 N   0  0  0  0  0  0  0  0  0  0  0  0
 30 31  1  0  0  0
 31 32  1  0  0  0
 32 33  2  0  0  0
 33 29  1  0  0  0
 29  1  1  0  0  0
  1  2  1  0  0  0
  3  2  1  0  0  0
  3  4  1  0  0  0
  4  5  2  0  0  0
  4  6  1  0  0  0
  6 19  1  0  0  0
 19 20  2  0  0  0
 20 21  1  0  0  0
 21 22  2  0  0  0
 22 23  1  0  0  0
 23 24  2  0  0  0
 24 25  1  0  0  0
 25 26  2  0  0  0
 26 27  1  0  0  0
 27 28  2  0  0  0
  6  7  1  0  0  0
  7  8  1  0  0  0
  8  9  1  0  0  0
  3 10  1  0  0  0
 10 11  2  0  0  0
 11 12  1  0  0  0
 12 13  1  0  0  0
 12 14  2  0  0  0
 14 15  1  0  0  0
 15 16  2  0  0  0
 16 17  1  0  0  0
 17 18  2  0  0  0
 33 34  1  0  0  0
 34 35  1  0  0  0
 35 31  2  0  0  0
 17  1  1  0  0  0
  8  3  1  0  0  0
 16 10  1  0  0  0
 28 19  1  0  0  0
 28 23  1  0  0  0
M  END
> <minimizedAffinity>
-7.51889

> <CNNscore>
0.2121747881

> <CNNaffinity>
6.3913478851

> <CNN_VS>
1.3560829163

> <CNNaffinity_variance>
0.1776482314

$$$$



 35 40  0  0  0  0  0  0  0  0999 V2000
    9.7933    0.0959   23.0175 N   0  0  0  0  0  0  0  0  0  0  0  0
    8.6211   -0.8299   22.8800 C   0  0  0  0  0  0  0  0  0  0  0  0
    8.5826   -2.1119   23.6579 C   0  0  0  0  0  0  0  0  0  0  0  0
    8.4052   -3.4212   24.3679 C   0  0  0  0  0  0  0  0  0  0  0  0
    8.9823   -4.1331   25.1656 O   0  0  0  0  0  0  0  0  0  0  0  0
    7.0950   -4.0094   23.9351 N   0  0  0  0  0  0  0  0  0  0  0  0
    6.4626   -3.0637   22.9575 C   0  0  0  0  0  0  0  0  0  0  0  0
    7.3820   -1.8909   22.7862 C   0  0  0  0  0  0  0  0  0  0  0  0
    7.1428   -0.7054   21.8989 C   0  0  0  0  0  0  0  0  0  0  0  0
    9.7163   -2.4681   24.5733 C   0  0  0  0  0  0  0  0  0  0  0  0
    9.6779   -3.7500   25.3511 C   0  0  0  0  0  0  0  0  0  0  0  0
   10.8115   -4.1061   26.2664 C   0  0  0  0  0  0  0  0  0  0  0  0
   10.7731   -5.3881   27.0444 F   0  0  0  0  0  0  0  0  0  0  0  0
   11.9837   -3.1803   26.4039 C   0  0  0  0  0  0  0  0  0  0  0  0
   12.0222   -1.8984   25.6261 C   0  0  0  0  0  0  0  0  0  0  0  0
   10.8885   -1.5422   24.7107 C   0  0  0  0  0  0  0  0  0  0  0  0
   10.9269   -0.2602   23.9328 C   0  0  0  0  0  0  0  0  0  0  0  0
   12.0991    0.6656   24.0703 O   0  0  0  0  0  0  0  0  0  0  0  0
    6.5184   -5.3143   24.3985 C   0  0  0  0  0  0  0  0  0  0  0  0
    7.0856   -6.6072   23.8916 C   0  0  0  0  0  0  0  0  0  0  0  0
    6.5090   -7.9121   24.3550 N   0  0  0  0  0  0  0  0  0  0  0  0
    5.3652   -7.9241   25.3253 C   0  0  0  0  0  0  0  0  0  0  0  0
    4.7980   -6.6313   25.8322 C   0  0  0  0  0  0  0  0  0  0  0  0
    3.6541   -6.6435   26.8026 C   0  0  0  0  0  0  0  0  0  0  0  0
    3.0869   -5.3506   27.3094 C   0  0  0  0  0  0  0  0  0  0  0  0
    3.6635   -4.0457   26.8460 C   0  0  0  0  0  0  0  0  0  0  0  0
    4.8073   -4.0336   25.8757 C   0  0  0  0  0  0  0  0  0  0  0  0
    5.3746   -5.3264   25.3688 C   0  0  0  0  0  0  0  0  0  0  0  0
    9.8317    1.3779   22.2396 C   0  0  0  0  0  0  0  0  0  0  0  0
    6.3786    5.0253   23.8685 C   0  0  0  0  0  0  0  0  0  0  0  0
    7.0757    3.9936   23.0321 C   0  0  0  0  0  0  0  0  0  0  0  0
    8.3179    3.2434   23.4116 C   0  0  0  0  0  0  0  0  0  0  0  0
    8.6629    2.3170   22.2834 C   0  0  0  0  0  0  0  0  0  0  0  0
    7.6338    2.4947   21.2065 O   0  0  0  0  0  0  0  0  0  0  0  0
    6.6528    3.5309   21.6693 N   0  0  0  0  0  0  0  0  0  0  0  0
 30 31  1  0  0  0
 31 32  1  0  0  0
 32 33  2  0  0  0
 33 29  1  0  0  0
 29  1  1  0  0  0
  1  2  1  0  0  0
  3  2  1  0  0  0
  3  4  1  0  0  0
  4  5  2  0  0  0
  4  6  1  0  0  0
  6 19  1  0  0  0
 19 20  2  0  0  0
 20 21  1  0  0  0
 21 22  2  0  0  0
 22 23  1  0  0  0
 23 24  2  0  0  0
 24 25  1  0  0  0
 25 26  2  0  0  0
 26 27  1  0  0  0
 27 28  2  0  0  0
  6  7  1  0  0  0
  7  8  1  0  0  0
  8  9  1  0  0  0
  3 10  1  0  0  0
 10 11  2  0  0  0
 11 12  1  0  0  0
 12 13  1  0  0  0
 12 14  2  0  0  0
 14 15  1  0  0  0
 15 16  2  0  0  0
 16 17  1  0  0  0
 17 18  2  0  0  0
 33 34  1  0  0  0
 34 35  1  0  0  0
 35 31  2  0  0  0
 17  1  1  0  0  0
  8  3  1  0  0  0
 16 10  1  0  0  0
 28 19  1  0  0  0
 28 23  1  0  0  0
M  END
> <minimizedAffinity>
-8.78935

> <CNNscore>
0.2093048841

> <CNNaffinity>
6.4521942139

> <CNN_VS>
1.3504757881

> <CNNaffinity_variance>
0.3581995964

$$$$



 35 40  0  0  0  0  0  0  0  0999 V2000
    7.5132   -1.4656   23.9920 N   0  0  0  0  0  0  0  0  0  0  0  0
    7.4424    0.0205   23.8009 C   0  0  0  0  0  0  0  0  0  0  0  0
    8.6856    0.7952   23.4781 C   0  0  0  0  0  0  0  0  0  0  0  0
    9.8384    1.6983   23.1535 C   0  0  0  0  0  0  0  0  0  0  0  0
   11.0354    1.6440   22.9522 O   0  0  0  0  0  0  0  0  0  0  0  0
    9.3149    3.1004   23.0529 N   0  0  0  0  0  0  0  0  0  0  0  0
    7.8385    3.0638   23.3154 C   0  0  0  0  0  0  0  0  0  0  0  0
    7.4496    1.6391   23.5782 C   0  0  0  0  0  0  0  0  0  0  0  0
    6.0673    1.1451   23.8868 C   0  0  0  0  0  0  0  0  0  0  0  0
    9.9997    0.0839   23.3463 C   0  0  0  0  0  0  0  0  0  0  0  0
   11.2428    0.8586   23.0236 C   0  0  0  0  0  0  0  0  0  0  0  0
   12.5568    0.1472   22.8918 C   0  0  0  0  0  0  0  0  0  0  0  0
   13.8001    0.9220   22.5690 F   0  0  0  0  0  0  0  0  0  0  0  0
   12.6276   -1.3389   23.0828 C   0  0  0  0  0  0  0  0  0  0  0  0
   11.3844   -2.1136   23.4056 C   0  0  0  0  0  0  0  0  0  0  0  0
   10.0705   -1.4022   23.5374 C   0  0  0  0  0  0  0  0  0  0  0  0
    8.8272   -2.1770   23.8602 C   0  0  0  0  0  0  0  0  0  0  0  0
    8.8980   -3.6631   24.0512 O   0  0  0  0  0  0  0  0  0  0  0  0
   10.1254    4.3242   22.7441 C   0  0  0  0  0  0  0  0  0  0  0  0
   11.4400    4.1935   22.0336 C   0  0  0  0  0  0  0  0  0  0  0  0
   12.2506    5.4173   21.7248 N   0  0  0  0  0  0  0  0  0  0  0  0
   11.7466    6.7717   22.1265 C   0  0  0  0  0  0  0  0  0  0  0  0
   10.4319    6.9024   22.8369 C   0  0  0  0  0  0  0  0  0  0  0  0
    9.9279    8.2570   23.2386 C   0  0  0  0  0  0  0  0  0  0  0  0
    8.6133    8.3875   23.9491 C   0  0  0  0  0  0  0  0  0  0  0  0
    7.8027    7.1638   24.2579 C   0  0  0  0  0  0  0  0  0  0  0  0
    8.3068    5.8093   23.8562 C   0  0  0  0  0  0  0  0  0  0  0  0
    9.6214    5.6786   23.1458 C   0  0  0  0  0  0  0  0  0  0  0  0
    6.2699   -2.2404   24.3148 C   0  0  0  0  0  0  0  0  0  0  0  0
    5.6254   -6.3775   21.0977 C   0  0  0  0  0  0  0  0  0  0  0  0
    5.8124   -5.5454   22.3316 C   0  0  0  0  0  0  0  0  0  0  0  0
    5.9361   -4.0512   22.3771 C   0  0  0  0  0  0  0  0  0  0  0  0
    6.1086   -3.6438   23.8104 C   0  0  0  0  0  0  0  0  0  0  0  0
    6.0916   -4.8862   24.6508 O   0  0  0  0  0  0  0  0  0  0  0  0
    5.9085   -6.0615   23.7368 N   0  0  0  0  0  0  0  0  0  0  0  0
 30 31  1  0  0  0
 31 32  1  0  0  0
 32 33  2  0  0  0
 33 29  1  0  0  0
 29  1  1  0  0  0
  1  2  1  0  0  0
  3  2  1  0  0  0
  3  4  1  0  0  0
  4  5  2  0  0  0
  4  6  1  0  0  0
  6 19  1  0  0  0
 19 20  2  0  0  0
 20 21  1  0  0  0
 21 22  2  0  0  0
 22 23  1  0  0  0
 23 24  2  0  0  0
 24 25  1  0  0  0
 25 26  2  0  0  0
 26 27  1  0  0  0
 27 28  2  0  0  0
  6  7  1  0  0  0
  7  8  1  0  0  0
  8  9  1  0  0  0
  3 10  1  0  0  0
 10 11  2  0  0  0
 11 12  1  0  0  0
 12 13  1  0  0  0
 12 14  2  0  0  0
 14 15  1  0  0  0
 15 16  2  0  0  0
 16 17  1  0  0  0
 17 18  2  0  0  0
 33 34  1  0  0  0
 34 35  1  0  0  0
 35 31  2  0  0  0
 17  1  1  0  0  0
  8  3  1  0  0  0
 16 10  1  0  0  0
 28 19  1  0  0  0
 28 23  1  0  0  0
M  END
> <minimizedAffinity>
-8.06887

> <CNNscore>
0.2016313970

> <CNNaffinity>
6.5196886063

> <CNN_VS>
1.3145738840

> <CNNaffinity_variance>
0.0971610099

$$$$



 35 40  0  0  0  0  0  0  0  0999 V2000
    8.5683    4.5355   23.4032 N   0  0  0  0  0  0  0  0  0  0  0  0
    7.7878    3.3043   23.7569 C   0  0  0  0  0  0  0  0  0  0  0  0
    8.4453    1.9573   23.6997 C   0  0  0  0  0  0  0  0  0  0  0  0
    8.9653    0.5504   23.6890 C   0  0  0  0  0  0  0  0  0  0  0  0
    9.9870   -0.0626   23.4507 O   0  0  0  0  0  0  0  0  0  0  0  0
    7.8492   -0.3596   24.1089 N   0  0  0  0  0  0  0  0  0  0  0  0
    6.6393    0.4850   24.3791 C   0  0  0  0  0  0  0  0  0  0  0  0
    7.0078    1.9169   24.1262 C   0  0  0  0  0  0  0  0  0  0  0  0
    6.0983    3.1006   24.2739 C   0  0  0  0  0  0  0  0  0  0  0  0
    9.8833    1.8415   23.2889 C   0  0  0  0  0  0  0  0  0  0  0  0
   10.5408    0.4945   23.2317 C   0  0  0  0  0  0  0  0  0  0  0  0
   11.9788    0.3787   22.8209 C   0  0  0  0  0  0  0  0  0  0  0  0
   12.6363   -0.9684   22.7638 F   0  0  0  0  0  0  0  0  0  0  0  0
   12.7592    1.6098   22.4672 C   0  0  0  0  0  0  0  0  0  0  0  0
   12.1018    2.9568   22.5244 C   0  0  0  0  0  0  0  0  0  0  0  0
   10.6638    3.0726   22.9352 C   0  0  0  0  0  0  0  0  0  0  0  0
   10.0062    4.4197   22.9924 C   0  0  0  0  0  0  0  0  0  0  0  0
   10.7867    5.6508   22.6387 O   0  0  0  0  0  0  0  0  0  0  0  0
    7.9289   -1.8520   24.2362 C   0  0  0  0  0  0  0  0  0  0  0  0
    6.9106   -2.7183   23.5560 C   0  0  0  0  0  0  0  0  0  0  0  0
    6.9904   -4.2107   23.6833 N   0  0  0  0  0  0  0  0  0  0  0  0
    8.0884   -4.8369   24.4908 C   0  0  0  0  0  0  0  0  0  0  0  0
    9.1067   -3.9707   25.1711 C   0  0  0  0  0  0  0  0  0  0  0  0
   10.2048   -4.5969   25.9787 C   0  0  0  0  0  0  0  0  0  0  0  0
   11.2230   -3.7306   26.6589 C   0  0  0  0  0  0  0  0  0  0  0  0
   11.1432   -2.2381   26.5316 C   0  0  0  0  0  0  0  0  0  0  0  0
   10.0452   -1.6119   25.7240 C   0  0  0  0  0  0  0  0  0  0  0  0
    9.0269   -2.4782   25.0438 C   0  0  0  0  0  0  0  0  0  0  0  0
    7.9107    5.8825   23.4603 C   0  0  0  0  0  0  0  0  0  0  0  0
    2.8347    7.2753   23.0425 C   0  0  0  0  0  0  0  0  0  0  0  0
    4.1863    6.7013   22.7367 C   0  0  0  0  0  0  0  0  0  0  0  0
    5.3905    6.7573   23.6292 C   0  0  0  0  0  0  0  0  0  0  0  0
    6.5195    6.0611   22.9287 C   0  0  0  0  0  0  0  0  0  0  0  0
    6.0130    5.5748   21.6031 O   0  0  0  0  0  0  0  0  0  0  0  0
    4.5710    5.9706   21.4845 N   0  0  0  0  0  0  0  0  0  0  0  0
 30 31  1  0  0  0
 31 32  1  0  0  0
 32 33  2  0  0  0
 33 29  1  0  0  0
 29  1  1  0  0  0
  1  2  1  0  0  0
  3  2  1  0  0  0
  3  4  1  0  0  0
  4  5  2  0  0  0
  4  6  1  0  0  0
  6 19  1  0  0  0
 19 20  2  0  0  0
 20 21  1  0  0  0
 21 22  2  0  0  0
 22 23  1  0  0  0
 23 24  2  0  0  0
 24 25  1  0  0  0
 25 26  2  0  0  0
 26 27  1  0  0  0
 27 28  2  0  0  0
  6  7  1  0  0  0
  7  8  1  0  0  0
  8  9  1  0  0  0
  3 10  1  0  0  0
 10 11  2  0  0  0
 11 12  1  0  0  0
 12 13  1  0  0  0
 12 14  2  0  0  0
 14 15  1  0  0  0
 15 16  2  0  0  0
 16 17  1  0  0  0
 17 18  2  0  0  0
 33 34  1  0  0  0
 34 35  1  0  0  0
 35 31  2  0  0  0
 17  1  1  0  0  0
  8  3  1  0  0  0
 16 10  1  0  0  0
 28 19  1  0  0  0
 28 23  1  0  0  0
M  END
> <minimizedAffinity>
-7.41644

> <CNNscore>
0.1977733821

> <CNNaffinity>
6.4080061913

> <CNN_VS>
1.2673330307

> <CNNaffinity_variance>
0.2750387192

$$$$



 35 40  0  0  0  0  0  0  0  0999 V2000
    4.5151    1.2787   21.1084 N   0  0  0  0  0  0  0  0  0  0  0  0
    5.8799    0.6615   21.0288 C   0  0  0  0  0  0  0  0  0  0  0  0
    6.7295    0.5588   22.2606 C   0  0  0  0  0  0  0  0  0  0  0  0
    7.6880    0.3884   23.4018 C   0  0  0  0  0  0  0  0  0  0  0  0
    7.7670    0.6154   24.5928 O   0  0  0  0  0  0  0  0  0  0  0  0
    8.9264   -0.2722   22.8724 N   0  0  0  0  0  0  0  0  0  0  0  0
    8.7332   -0.5100   21.4041 C   0  0  0  0  0  0  0  0  0  0  0  0
    7.3755    0.0036   21.0260 C   0  0  0  0  0  0  0  0  0  0  0  0
    6.7701   -0.0319   19.6540 C   0  0  0  0  0  0  0  0  0  0  0  0
    6.2144    1.0734   23.5721 C   0  0  0  0  0  0  0  0  0  0  0  0
    7.0641    0.9708   24.8040 C   0  0  0  0  0  0  0  0  0  0  0  0
    6.5490    1.4854   26.1154 C   0  0  0  0  0  0  0  0  0  0  0  0
    7.3986    1.3827   27.3473 F   0  0  0  0  0  0  0  0  0  0  0  0
    5.1842    2.1026   26.1949 C   0  0  0  0  0  0  0  0  0  0  0  0
    4.3345    2.2053   24.9631 C   0  0  0  0  0  0  0  0  0  0  0  0
    4.8496    1.6907   23.6517 C   0  0  0  0  0  0  0  0  0  0  0  0
    3.9999    1.7933   22.4197 C   0  0  0  0  0  0  0  0  0  0  0  0
    2.6352    2.4106   22.4993 O   0  0  0  0  0  0  0  0  0  0  0  0
   10.1440   -0.6317   23.6712 C   0  0  0  0  0  0  0  0  0  0  0  0
   11.3345    0.2808   23.6756 C   0  0  0  0  0  0  0  0  0  0  0  0
   12.5522   -0.0787   24.4744 N   0  0  0  0  0  0  0  0  0  0  0  0
   12.5793   -1.3508   25.2687 C   0  0  0  0  0  0  0  0  0  0  0  0
   11.3888   -2.2634   25.2643 C   0  0  0  0  0  0  0  0  0  0  0  0
   11.4160   -3.5355   26.0587 C   0  0  0  0  0  0  0  0  0  0  0  0
   10.2255   -4.4480   26.0542 C   0  0  0  0  0  0  0  0  0  0  0  0
    9.0078   -4.0885   25.2554 C   0  0  0  0  0  0  0  0  0  0  0  0
    8.9807   -2.8164   24.4611 C   0  0  0  0  0  0  0  0  0  0  0  0
   10.1712   -1.9038   24.4655 C   0  0  0  0  0  0  0  0  0  0  0  0
    3.6654    1.3813   19.8764 C   0  0  0  0  0  0  0  0  0  0  0  0
    0.2220    5.3743   19.5943 C   0  0  0  0  0  0  0  0  0  0  0  0
    0.8073    4.0057   19.7789 C   0  0  0  0  0  0  0  0  0  0  0  0
    2.2550    3.6394   19.6376 C   0  0  0  0  0  0  0  0  0  0  0  0
    2.3900    2.1703   19.9086 C   0  0  0  0  0  0  0  0  0  0  0  0
    1.0257    1.6285   20.2175 O   0  0  0  0  0  0  0  0  0  0  0  0
    0.0476    2.7630   20.1373 N   0  0  0  0  0  0  0  0  0  0  0  0
 30 31  1  0  0  0
 31 32  1  0  0  0
 32 33  2  0  0  0
 33 29  1  0  0  0
 29  1  1  0  0  0
  1  2  1  0  0  0
  3  2  1  0  0  0
  3  4  1  0  0  0
  4  5  2  0  0  0
  4  6  1  0  0  0
  6 19  1  0  0  0
 19 20  2  0  0  0
 20 21  1  0  0  0
 21 22  2  0  0  0
 22 23  1  0  0  0
 23 24  2  0  0  0
 24 25  1  0  0  0
 25 26  2  0  0  0
 26 27  1  0  0  0
 27 28  2  0  0  0
  6  7  1  0  0  0
  7  8  1  0  0  0
  8  9  1  0  0  0
  3 10  1  0  0  0
 10 11  2  0  0  0
 11 12  1  0  0  0
 12 13  1  0  0  0
 12 14  2  0  0  0
 14 15  1  0  0  0
 15 16  2  0  0  0
 16 17  1  0  0  0
 17 18  2  0  0  0
 33 34  1  0  0  0
 34 35  1  0  0  0
 35 31  2  0  0  0
 17  1  1  0  0  0
  8  3  1  0  0  0
 16 10  1  0  0  0
 28 19  1  0  0  0
 28 23  1  0  0  0
M  END
> <minimizedAffinity>
-8.73226

> <CNNscore>
0.1893321872

> <CNNaffinity>
6.0357408524

> <CNN_VS>
1.1427600384

> <CNNaffinity_variance>
0.2843191028

$$$$



 35 40  0  0  0  0  0  0  0  0999 V2000
    8.3952   -0.1344   22.9494 N   0  0  0  0  0  0  0  0  0  0  0  0
    7.1304   -0.5355   23.6489 C   0  0  0  0  0  0  0  0  0  0  0  0
    7.1827   -1.4913   24.8038 C   0  0  0  0  0  0  0  0  0  0  0  0
    7.0790   -2.4326   25.9670 C   0  0  0  0  0  0  0  0  0  0  0  0
    7.7894   -3.1146   26.6788 O   0  0  0  0  0  0  0  0  0  0  0  0
    5.6317   -2.5447   26.3450 N   0  0  0  0  0  0  0  0  0  0  0  0
    4.8410   -1.6726   25.4153 C   0  0  0  0  0  0  0  0  0  0  0  0
    5.7996   -1.0216   24.4628 C   0  0  0  0  0  0  0  0  0  0  0  0
    5.4384   -0.0683   23.3625 C   0  0  0  0  0  0  0  0  0  0  0  0
    8.5000   -2.0460   25.2592 C   0  0  0  0  0  0  0  0  0  0  0  0
    8.5523   -3.0017   26.4140 C   0  0  0  0  0  0  0  0  0  0  0  0
    9.8695   -3.5563   26.8694 C   0  0  0  0  0  0  0  0  0  0  0  0
    9.9219   -4.5121   28.0243 F   0  0  0  0  0  0  0  0  0  0  0  0
   11.1343   -3.1552   26.1699 C   0  0  0  0  0  0  0  0  0  0  0  0
   11.0820   -2.1994   25.0150 C   0  0  0  0  0  0  0  0  0  0  0  0
    9.7648   -1.6448   24.5597 C   0  0  0  0  0  0  0  0  0  0  0  0
    9.7124   -0.6890   23.4048 C   0  0  0  0  0  0  0  0  0  0  0  0
   10.9772   -0.2878   22.7053 O   0  0  0  0  0  0  0  0  0  0  0  0
    5.0733   -3.3818   27.4574 C   0  0  0  0  0  0  0  0  0  0  0  0
    4.5943   -4.7758   27.1792 C   0  0  0  0  0  0  0  0  0  0  0  0
    4.0358   -5.6129   28.2916 N   0  0  0  0  0  0  0  0  0  0  0  0
    3.9563   -5.0561   29.6821 C   0  0  0  0  0  0  0  0  0  0  0  0
    4.4353   -3.6620   29.9602 C   0  0  0  0  0  0  0  0  0  0  0  0
    4.3558   -3.1052   31.3508 C   0  0  0  0  0  0  0  0  0  0  0  0
    4.8348   -1.7112   31.6289 C   0  0  0  0  0  0  0  0  0  0  0  0
    5.3933   -0.8740   30.5165 C   0  0  0  0  0  0  0  0  0  0  0  0
    5.4728   -1.4309   29.1260 C   0  0  0  0  0  0  0  0  0  0  0  0
    4.9938   -2.8249   28.8479 C   0  0  0  0  0  0  0  0  0  0  0  0
    8.3428    0.8215   21.7945 C   0  0  0  0  0  0  0  0  0  0  0  0
    4.4666    1.0705   18.2177 C   0  0  0  0  0  0  0  0  0  0  0  0
    5.6910    0.6344   18.9663 C   0  0  0  0  0  0  0  0  0  0  0  0
    6.2447    1.2786   20.2026 C   0  0  0  0  0  0  0  0  0  0  0  0
    7.4728    0.5200   20.6104 C   0  0  0  0  0  0  0  0  0  0  0  0
    7.6781   -0.5932   19.6261 O   0  0  0  0  0  0  0  0  0  0  0  0
    6.5769   -0.5224   18.6100 N   0  0  0  0  0  0  0  0  0  0  0  0
 30 31  1  0  0  0
 31 32  1  0  0  0
 32 33  2  0  0  0
 33 29  1  0  0  0
 29  1  1  0  0  0
  1  2  1  0  0  0
  3  2  1  0  0  0
  3  4  1  0  0  0
  4  5  2  0  0  0
  4  6  1  0  0  0
  6 19  1  0  0  0
 19 20  2  0  0  0
 20 21  1  0  0  0
 21 22  2  0  0  0
 22 23  1  0  0  0
 23 24  2  0  0  0
 24 25  1  0  0  0
 25 26  2  0  0  0
 26 27  1  0  0  0
 27 28  2  0  0  0
  6  7  1  0  0  0
  7  8  1  0  0  0
  8  9  1  0  0  0
  3 10  1  0  0  0
 10 11  2  0  0  0
 11 12  1  0  0  0
 12 13  1  0  0  0
 12 14  2  0  0  0
 14 15  1  0  0  0
 15 16  2  0  0  0
 16 17  1  0  0  0
 17 18  2  0  0  0
 33 34  1  0  0  0
 34 35  1  0  0  0
 35 31  2  0  0  0
 17  1  1  0  0  0
  8  3  1  0  0  0
 16 10  1  0  0  0
 28 19  1  0  0  0
 28 23  1  0  0  0
M  END
> <minimizedAffinity>
-7.61053

> <CNNscore>
0.1883439720

> <CNNaffinity>
6.1356616020

> <CNN_VS>
1.1556148529

> <CNNaffinity_variance>
0.1083621383

$$$$



 35 40  0  0  0  0  0  0  0  0999 V2000
    9.6450    0.4718   23.8827 N   0  0  0  0  0  0  0  0  0  0  0  0
    8.2968   -0.0245   24.3141 C   0  0  0  0  0  0  0  0  0  0  0  0
    8.1889   -1.2409   25.1851 C   0  0  0  0  0  0  0  0  0  0  0  0
    7.9254   -2.4371   26.0509 C   0  0  0  0  0  0  0  0  0  0  0  0
    8.5298   -3.3125   26.6380 O   0  0  0  0  0  0  0  0  0  0  0  0
    6.4412   -2.5637   26.2273 N   0  0  0  0  0  0  0  0  0  0  0  0
    5.7874   -1.4456   25.4706 C   0  0  0  0  0  0  0  0  0  0  0  0
    6.8676   -0.6281   24.8265 C   0  0  0  0  0  0  0  0  0  0  0  0
    6.6624    0.5886   23.9735 C   0  0  0  0  0  0  0  0  0  0  0  0
    9.4292   -1.9610   25.6247 C   0  0  0  0  0  0  0  0  0  0  0  0
    9.3213   -3.1774   26.4958 C   0  0  0  0  0  0  0  0  0  0  0  0
   10.5615   -3.8974   26.9354 C   0  0  0  0  0  0  0  0  0  0  0  0
   10.4536   -5.1139   27.8064 F   0  0  0  0  0  0  0  0  0  0  0  0
   11.9096   -3.4011   26.5039 C   0  0  0  0  0  0  0  0  0  0  0  0
   12.0176   -2.1847   25.6329 C   0  0  0  0  0  0  0  0  0  0  0  0
   10.7774   -1.4647   25.1933 C   0  0  0  0  0  0  0  0  0  0  0  0
   10.8852   -0.2482   24.3223 C   0  0  0  0  0  0  0  0  0  0  0  0
   12.2334    0.2481   23.8908 O   0  0  0  0  0  0  0  0  0  0  0  0
    5.7348   -3.6224   27.0211 C   0  0  0  0  0  0  0  0  0  0  0  0
    5.5391   -3.4471   28.4980 C   0  0  0  0  0  0  0  0  0  0  0  0
    4.8327   -4.5058   29.2918 N   0  0  0  0  0  0  0  0  0  0  0  0
    4.3220   -5.7398   28.6088 C   0  0  0  0  0  0  0  0  0  0  0  0
    4.5177   -5.9150   27.1319 C   0  0  0  0  0  0  0  0  0  0  0  0
    4.0070   -7.1491   26.4489 C   0  0  0  0  0  0  0  0  0  0  0  0
    4.2027   -7.3242   24.9721 C   0  0  0  0  0  0  0  0  0  0  0  0
    4.9091   -6.2655   24.1783 C   0  0  0  0  0  0  0  0  0  0  0  0
    5.4198   -5.0316   24.8613 C   0  0  0  0  0  0  0  0  0  0  0  0
    5.2241   -4.8563   26.3381 C   0  0  0  0  0  0  0  0  0  0  0  0
    9.7529    1.6883   23.0116 C   0  0  0  0  0  0  0  0  0  0  0  0
    5.5913    4.6763   21.7334 C   0  0  0  0  0  0  0  0  0  0  0  0
    6.6255    3.5900   21.7198 C   0  0  0  0  0  0  0  0  0  0  0  0
    7.7534    3.4341   22.6963 C   0  0  0  0  0  0  0  0  0  0  0  0
    8.5384    2.2165   22.3073 C   0  0  0  0  0  0  0  0  0  0  0  0
    7.8956    1.6198   21.0903 O   0  0  0  0  0  0  0  0  0  0  0  0
    6.7134    2.4688   20.7273 N   0  0  0  0  0  0  0  0  0  0  0  0
 30 31  1  0  0  0
 31 32  1  0  0  0
 32 33  2  0  0  0
 33 29  1  0  0  0
 29  1  1  0  0  0
  1  2  1  0  0  0
  3  2  1  0  0  0
  3  4  1  0  0  0
  4  5  2  0  0  0
  4  6  1  0  0  0
  6 19  1  0  0  0
 19 20  2  0  0  0
 20 21  1  0  0  0
 21 22  2  0  0  0
 22 23  1  0  0  0
 23 24  2  0  0  0
 24 25  1  0  0  0
 25 26  2  0  0  0
 26 27  1  0  0  0
 27 28  2  0  0  0
  6  7  1  0  0  0
  7  8  1  0  0  0
  8  9  1  0  0  0
  3 10  1  0  0  0
 10 11  2  0  0  0
 11 12  1  0  0  0
 12 13  1  0  0  0
 12 14  2  0  0  0
 14 15  1  0  0  0
 15 16  2  0  0  0
 16 17  1  0  0  0
 17 18  2  0  0  0
 33 34  1  0  0  0
 34 35  1  0  0  0
 35 31  2  0  0  0
 17  1  1  0  0  0
  8  3  1  0  0  0
 16 10  1  0  0  0
 28 19  1  0  0  0
 28 23  1  0  0  0
M  END
> <minimizedAffinity>
-8.02581

> <CNNscore>
0.1834591180

> <CNNaffinity>
6.3172359467

> <CNN_VS>
1.1589545012

> <CNNaffinity_variance>
0.2130621672

$$$$
