


 22 25  0  0  0  0  0  0  0  0999 V2000
   -5.3219   -4.6423  -20.0674 O   0  0  0  0  0  0  0  0  0  0  0  0
   -5.8279   -3.9975  -21.3237 C   0  0  0  0  0  0  0  0  0  0  0  0
   -5.7861   -4.7486  -22.6215 N   0  0  0  0  0  0  0  0  0  0  0  0
   -6.2920   -4.1039  -23.8778 C   0  0  0  0  0  0  0  0  0  0  0  0
   -6.2503   -4.8550  -25.1755 C   0  0  0  0  0  0  0  0  0  0  0  0
   -5.7026   -6.2508  -25.2169 C   0  0  0  0  0  0  0  0  0  0  0  0
   -6.1032   -5.9490  -26.6305 C   0  0  0  0  0  0  0  0  0  0  0  0
   -5.6436   -7.3131  -27.0522 C   0  0  0  0  0  0  0  0  0  0  0  0
   -5.2430   -7.6150  -25.6386 C   0  0  0  0  0  0  0  0  0  0  0  0
   -5.1967   -6.8956  -23.9605 C   0  0  0  0  0  0  0  0  0  0  0  0
   -5.2384   -6.1445  -22.6628 C   0  0  0  0  0  0  0  0  0  0  0  0
   -6.3755   -2.6017  -21.2823 C   0  0  0  0  0  0  0  0  0  0  0  0
   -5.8590   -1.6231  -20.2697 C   0  0  0  0  0  0  0  0  0  0  0  0
   -6.3038   -1.7178  -18.8403 C   0  0  0  0  0  0  0  0  0  0  0  0
   -5.7872   -0.7391  -17.8277 N   0  0  0  0  0  0  0  0  0  0  0  0
   -4.8259    0.3342  -18.2444 C   0  0  0  0  0  0  0  0  0  0  0  0
   -4.3810    0.4289  -19.6738 C   0  0  0  0  0  0  0  0  0  0  0  0
   -3.4196    1.5023  -20.0905 C   0  0  0  0  0  0  0  0  0  0  0  0
   -2.9748    1.5969  -21.5199 C   0  0  0  0  0  0  0  0  0  0  0  0
   -3.4914    0.6183  -22.5325 C   0  0  0  0  0  0  0  0  0  0  0  0
   -4.4527   -0.4550  -22.1158 C   0  0  0  0  0  0  0  0  0  0  0  0
   -4.8975   -0.5497  -20.6865 C   0  0  0  0  0  0  0  0  0  0  0  0
  1  2  2  0  0  0
  2 12  1  0  0  0
 12 13  1  0  0  0
 13 14  2  0  0  0
 14 15  1  0  0  0
 15 16  2  0  0  0
 16 17  1  0  0  0
 17 18  2  0  0  0
 18 19  1  0  0  0
 19 20  2  0  0  0
 20 21  1  0  0  0
 21 22  2  0  0  0
  2  3  1  0  0  0
  3  4  1  0  0  0
  4  5  1  0  0  0
  5  6  1  0  0  0
  6  7  1  0  0  0
  7  8  1  0  0  0
  8  9  1  0  0  0
  6 10  1  0  0  0
 10 11  1  0  0  0
 22 13  1  0  0  0
 11  3  1  0  0  0
 22 17  1  0  0  0
  9  6  1  0  0  0
M  END
> <minimizedAffinity>
-6.78925

> <CNNscore>
0.8727097511

> <CNNaffinity>
5.4442658424

> <CNN_VS>
4.7512640953

> <CNNaffinity_variance>
0.0825604871

$$$$



 22 25  0  0  0  0  0  0  0  0999 V2000
   -5.3836   -3.8695  -21.0800 O   0  0  0  0  0  0  0  0  0  0  0  0
   -6.4126   -3.1917  -21.9354 C   0  0  0  0  0  0  0  0  0  0  0  0
   -7.1801   -3.9819  -22.9535 N   0  0  0  0  0  0  0  0  0  0  0  0
   -8.2090   -3.3042  -23.8090 C   0  0  0  0  0  0  0  0  0  0  0  0
   -8.9765   -4.0944  -24.8270 C   0  0  0  0  0  0  0  0  0  0  0  0
   -8.7151   -5.5625  -24.9896 C   0  0  0  0  0  0  0  0  0  0  0  0
   -9.7846   -5.2453  -25.9923 C   0  0  0  0  0  0  0  0  0  0  0  0
   -9.8005   -6.6801  -26.4293 C   0  0  0  0  0  0  0  0  0  0  0  0
   -8.7310   -6.9974  -25.4266 C   0  0  0  0  0  0  0  0  0  0  0  0
   -7.6861   -6.2403  -24.1341 C   0  0  0  0  0  0  0  0  0  0  0  0
   -6.9186   -5.4501  -23.1160 C   0  0  0  0  0  0  0  0  0  0  0  0
   -6.6740   -1.7236  -21.7729 C   0  0  0  0  0  0  0  0  0  0  0  0
   -6.1528   -0.9979  -20.5680 C   0  0  0  0  0  0  0  0  0  0  0  0
   -6.8541   -1.1339  -19.2491 C   0  0  0  0  0  0  0  0  0  0  0  0
   -6.3329   -0.4082  -18.0442 N   0  0  0  0  0  0  0  0  0  0  0  0
   -5.1104    0.4535  -18.1583 C   0  0  0  0  0  0  0  0  0  0  0  0
   -4.4091    0.5895  -19.4773 C   0  0  0  0  0  0  0  0  0  0  0  0
   -3.1866    1.4512  -19.5913 C   0  0  0  0  0  0  0  0  0  0  0  0
   -2.4853    1.5871  -20.9103 C   0  0  0  0  0  0  0  0  0  0  0  0
   -3.0065    0.8614  -22.1151 C   0  0  0  0  0  0  0  0  0  0  0  0
   -4.2290   -0.0003  -22.0011 C   0  0  0  0  0  0  0  0  0  0  0  0
   -4.9303   -0.1362  -20.6821 C   0  0  0  0  0  0  0  0  0  0  0  0
  1  2  2  0  0  0
  2 12  1  0  0  0
 12 13  1  0  0  0
 13 14  2  0  0  0
 14 15  1  0  0  0
 15 16  2  0  0  0
 16 17  1  0  0  0
 17 18  2  0  0  0
 18 19  1  0  0  0
 19 20  2  0  0  0
 20 21  1  0  0  0
 21 22  2  0  0  0
  2  3  1  0  0  0
  3  4  1  0  0  0
  4  5  1  0  0  0
  5  6  1  0  0  0
  6  7  1  0  0  0
  7  8  1  0  0  0
  8  9  1  0  0  0
  6 10  1  0  0  0
 10 11  1  0  0  0
 22 13  1  0  0  0
 11  3  1  0  0  0
 22 17  1  0  0  0
  9  6  1  0  0  0
M  END
> <minimizedAffinity>
-7.59564

> <CNNscore>
0.7600999475

> <CNNaffinity>
5.4093441963

> <CNN_VS>
4.1116423607

> <CNNaffinity_variance>
0.3567274809

$$$$



 22 25  0  0  0  0  0  0  0  0999 V2000
   -8.1957   -1.1521  -21.9065 O   0  0  0  0  0  0  0  0  0  0  0  0
   -7.3603   -2.3667  -22.1837 C   0  0  0  0  0  0  0  0  0  0  0  0
   -7.8373   -3.3973  -23.1637 N   0  0  0  0  0  0  0  0  0  0  0  0
   -7.0020   -4.6119  -23.4410 C   0  0  0  0  0  0  0  0  0  0  0  0
   -7.4789   -5.6425  -24.4210 C   0  0  0  0  0  0  0  0  0  0  0  0
   -8.7912   -5.4584  -25.1237 C   0  0  0  0  0  0  0  0  0  0  0  0
   -8.2518   -6.7581  -25.6430 C   0  0  0  0  0  0  0  0  0  0  0  0
   -9.4658   -6.9158  -26.5097 C   0  0  0  0  0  0  0  0  0  0  0  0
  -10.0054   -5.6161  -25.9905 C   0  0  0  0  0  0  0  0  0  0  0  0
   -9.6266   -4.2437  -24.8465 C   0  0  0  0  0  0  0  0  0  0  0  0
   -9.1497   -3.2132  -23.8665 C   0  0  0  0  0  0  0  0  0  0  0  0
   -6.0480   -2.5508  -21.4809 C   0  0  0  0  0  0  0  0  0  0  0  0
   -5.6438   -1.6066  -20.3877 C   0  0  0  0  0  0  0  0  0  0  0  0
   -6.1152   -1.8398  -18.9829 C   0  0  0  0  0  0  0  0  0  0  0  0
   -5.7110   -0.8956  -17.8897 N   0  0  0  0  0  0  0  0  0  0  0  0
   -4.8353    0.2817  -18.2012 C   0  0  0  0  0  0  0  0  0  0  0  0
   -4.3638    0.5149  -19.6060 C   0  0  0  0  0  0  0  0  0  0  0  0
   -3.4881    1.6922  -19.9175 C   0  0  0  0  0  0  0  0  0  0  0  0
   -3.0167    1.9254  -21.3223 C   0  0  0  0  0  0  0  0  0  0  0  0
   -3.4210    0.9812  -22.4155 C   0  0  0  0  0  0  0  0  0  0  0  0
   -4.2966   -0.1961  -22.1040 C   0  0  0  0  0  0  0  0  0  0  0  0
   -4.7680   -0.4293  -20.6993 C   0  0  0  0  0  0  0  0  0  0  0  0
  1  2  2  0  0  0
  2 12  1  0  0  0
 12 13  1  0  0  0
 13 14  2  0  0  0
 14 15  1  0  0  0
 15 16  2  0  0  0
 16 17  1  0  0  0
 17 18  2  0  0  0
 18 19  1  0  0  0
 19 20  2  0  0  0
 20 21  1  0  0  0
 21 22  2  0  0  0
  2  3  1  0  0  0
  3  4  1  0  0  0
  4  5  1  0  0  0
  5  6  1  0  0  0
  6  7  1  0  0  0
  7  8  1  0  0  0
  8  9  1  0  0  0
  6 10  1  0  0  0
 10 11  1  0  0  0
 22 13  1  0  0  0
 11  3  1  0  0  0
 22 17  1  0  0  0
  9  6  1  0  0  0
M  END
> <minimizedAffinity>
-7.38682

> <CNNscore>
0.7306556702

> <CNNaffinity>
5.2935972214

> <CNN_VS>
3.8677968979

> <CNNaffinity_variance>
0.2993107736

$$$$



 22 25  0  0  0  0  0  0  0  0999 V2000
   -5.0260   -3.4803  -19.4683 O   0  0  0  0  0  0  0  0  0  0  0  0
   -5.7235   -2.9023  -20.6640 C   0  0  0  0  0  0  0  0  0  0  0  0
   -6.0327   -3.7732  -21.8455 N   0  0  0  0  0  0  0  0  0  0  0  0
   -6.7301   -3.1953  -23.0412 C   0  0  0  0  0  0  0  0  0  0  0  0
   -7.0393   -4.0661  -24.2227 C   0  0  0  0  0  0  0  0  0  0  0  0
   -6.6510   -5.5149  -24.2086 C   0  0  0  0  0  0  0  0  0  0  0  0
   -7.3128   -5.3034  -25.5379 C   0  0  0  0  0  0  0  0  0  0  0  0
   -7.0882   -6.7465  -25.8795 C   0  0  0  0  0  0  0  0  0  0  0  0
   -6.4263   -6.9582  -24.5502 C   0  0  0  0  0  0  0  0  0  0  0  0
   -5.9535   -6.0929  -23.0129 C   0  0  0  0  0  0  0  0  0  0  0  0
   -5.6443   -5.2220  -21.8314 C   0  0  0  0  0  0  0  0  0  0  0  0
   -6.1118   -1.4535  -20.6781 C   0  0  0  0  0  0  0  0  0  0  0  0
   -5.0785   -0.3976  -20.4187 C   0  0  0  0  0  0  0  0  0  0  0  0
   -4.9011    0.1544  -19.0353 C   0  0  0  0  0  0  0  0  0  0  0  0
   -3.8678    1.2103  -18.7759 N   0  0  0  0  0  0  0  0  0  0  0  0
   -3.0119    1.7144  -19.8999 C   0  0  0  0  0  0  0  0  0  0  0  0
   -3.1894    1.1624  -21.2834 C   0  0  0  0  0  0  0  0  0  0  0  0
   -2.3335    1.6665  -22.4074 C   0  0  0  0  0  0  0  0  0  0  0  0
   -2.5110    1.1146  -23.7908 C   0  0  0  0  0  0  0  0  0  0  0  0
   -3.5442    0.0586  -24.0502 C   0  0  0  0  0  0  0  0  0  0  0  0
   -4.4001   -0.4454  -22.9262 C   0  0  0  0  0  0  0  0  0  0  0  0
   -4.2226    0.1065  -21.5428 C   0  0  0  0  0  0  0  0  0  0  0  0
  1  2  2  0  0  0
  2 12  1  0  0  0
 12 13  1  0  0  0
 13 14  2  0  0  0
 14 15  1  0  0  0
 15 16  2  0  0  0
 16 17  1  0  0  0
 17 18  2  0  0  0
 18 19  1  0  0  0
 19 20  2  0  0  0
 20 21  1  0  0  0
 21 22  2  0  0  0
  2  3  1  0  0  0
  3  4  1  0  0  0
  4  5  1  0  0  0
  5  6  1  0  0  0
  6  7  1  0  0  0
  7  8  1  0  0  0
  8  9  1  0  0  0
  6 10  1  0  0  0
 10 11  1  0  0  0
 22 13  1  0  0  0
 11  3  1  0  0  0
 22 17  1  0  0  0
  9  6  1  0  0  0
M  END
> <minimizedAffinity>
-6.59287

> <CNNscore>
0.6014517546

> <CNNaffinity>
5.0104994774

> <CNN_VS>
3.0135736465

> <CNNaffinity_variance>
0.0925757438

$$$$



 22 25  0  0  0  0  0  0  0  0999 V2000
   -5.3777   -4.7588  -21.3491 O   0  0  0  0  0  0  0  0  0  0  0  0
   -6.3833   -3.9047  -22.0629 C   0  0  0  0  0  0  0  0  0  0  0  0
   -7.2590   -4.5043  -23.1229 N   0  0  0  0  0  0  0  0  0  0  0  0
   -8.2645   -3.6503  -23.8366 C   0  0  0  0  0  0  0  0  0  0  0  0
   -9.1402   -4.2499  -24.8967 C   0  0  0  0  0  0  0  0  0  0  0  0
   -9.0103   -5.7036  -25.2430 C   0  0  0  0  0  0  0  0  0  0  0  0
  -10.0930   -5.1855  -26.1426 C   0  0  0  0  0  0  0  0  0  0  0  0
  -10.2486   -6.5516  -26.7421 C   0  0  0  0  0  0  0  0  0  0  0  0
   -9.1659   -7.0698  -25.8426 C   0  0  0  0  0  0  0  0  0  0  0  0
   -8.0046   -6.5577  -24.5292 C   0  0  0  0  0  0  0  0  0  0  0  0
   -7.1290   -5.9580  -23.4692 C   0  0  0  0  0  0  0  0  0  0  0  0
   -6.5133   -2.4510  -21.7165 C   0  0  0  0  0  0  0  0  0  0  0  0
   -5.5597   -1.4523  -22.3025 C   0  0  0  0  0  0  0  0  0  0  0  0
   -5.3147   -1.4278  -23.7821 C   0  0  0  0  0  0  0  0  0  0  0  0
   -4.3612   -0.4291  -24.3680 N   0  0  0  0  0  0  0  0  0  0  0  0
   -3.6527    0.5452  -23.4744 C   0  0  0  0  0  0  0  0  0  0  0  0
   -3.8977    0.5208  -21.9946 C   0  0  0  0  0  0  0  0  0  0  0  0
   -3.1892    1.4951  -21.1010 C   0  0  0  0  0  0  0  0  0  0  0  0
   -3.4342    1.4706  -19.6213 C   0  0  0  0  0  0  0  0  0  0  0  0
   -4.3877    0.4719  -19.0354 C   0  0  0  0  0  0  0  0  0  0  0  0
   -5.0962   -0.5024  -19.9291 C   0  0  0  0  0  0  0  0  0  0  0  0
   -4.8512   -0.4780  -21.4087 C   0  0  0  0  0  0  0  0  0  0  0  0
  1  2  2  0  0  0
  2 12  1  0  0  0
 12 13  1  0  0  0
 13 14  2  0  0  0
 14 15  1  0  0  0
 15 16  2  0  0  0
 16 17  1  0  0  0
 17 18  2  0  0  0
 18 19  1  0  0  0
 19 20  2  0  0  0
 20 21  1  0  0  0
 21 22  2  0  0  0
  2  3  1  0  0  0
  3  4  1  0  0  0
  4  5  1  0  0  0
  5  6  1  0  0  0
  6  7  1  0  0  0
  7  8  1  0  0  0
  8  9  1  0  0  0
  6 10  1  0  0  0
 10 11  1  0  0  0
 22 13  1  0  0  0
 11  3  1  0  0  0
 22 17  1  0  0  0
  9  6  1  0  0  0
M  END
> <minimizedAffinity>
-6.55759

> <CNNscore>
0.5612784624

> <CNNaffinity>
5.1542854309

> <CNN_VS>
2.8929893970

> <CNNaffinity_variance>
0.2557364404

$$$$



 22 25  0  0  0  0  0  0  0  0999 V2000
   -7.0443   -0.3059  -18.6713 O   0  0  0  0  0  0  0  0  0  0  0  0
   -6.4899   -0.3374  -20.0648 C   0  0  0  0  0  0  0  0  0  0  0  0
   -5.1370    0.2457  -20.3470 N   0  0  0  0  0  0  0  0  0  0  0  0
   -4.5825    0.2143  -21.7404 C   0  0  0  0  0  0  0  0  0  0  0  0
   -3.2296    0.7974  -22.0226 C   0  0  0  0  0  0  0  0  0  0  0  0
   -2.4312    1.4120  -20.9115 C   0  0  0  0  0  0  0  0  0  0  0  0
   -1.5741    1.5606  -22.1335 C   0  0  0  0  0  0  0  0  0  0  0  0
   -0.5180    2.2367  -21.3106 C   0  0  0  0  0  0  0  0  0  0  0  0
   -1.3749    2.0881  -20.0885 C   0  0  0  0  0  0  0  0  0  0  0  0
   -2.9856    1.4435  -19.5180 C   0  0  0  0  0  0  0  0  0  0  0  0
   -4.3385    0.8604  -19.2358 C   0  0  0  0  0  0  0  0  0  0  0  0
   -7.2883   -0.9520  -21.1759 C   0  0  0  0  0  0  0  0  0  0  0  0
   -8.2231   -0.1035  -21.9860 C   0  0  0  0  0  0  0  0  0  0  0  0
   -7.8683    1.3215  -22.2915 C   0  0  0  0  0  0  0  0  0  0  0  0
   -8.8031    2.1700  -23.1016 N   0  0  0  0  0  0  0  0  0  0  0  0
  -10.0926    1.5935  -23.6062 C   0  0  0  0  0  0  0  0  0  0  0  0
  -10.4474    0.1683  -23.3008 C   0  0  0  0  0  0  0  0  0  0  0  0
  -11.7369   -0.4082  -23.8054 C   0  0  0  0  0  0  0  0  0  0  0  0
  -12.0917   -1.8332  -23.4999 C   0  0  0  0  0  0  0  0  0  0  0  0
  -11.1569   -2.6817  -22.6898 C   0  0  0  0  0  0  0  0  0  0  0  0
   -9.8674   -2.1052  -22.1852 C   0  0  0  0  0  0  0  0  0  0  0  0
   -9.5126   -0.6801  -22.4907 C   0  0  0  0  0  0  0  0  0  0  0  0
  1  2  2  0  0  0
  2 12  1  0  0  0
 12 13  1  0  0  0
 13 14  2  0  0  0
 14 15  1  0  0  0
 15 16  2  0  0  0
 16 17  1  0  0  0
 17 18  2  0  0  0
 18 19  1  0  0  0
 19 20  2  0  0  0
 20 21  1  0  0  0
 21 22  2  0  0  0
  2  3  1  0  0  0
  3  4  1  0  0  0
  4  5  1  0  0  0
  5  6  1  0  0  0
  6  7  1  0  0  0
  7  8  1  0  0  0
  8  9  1  0  0  0
  6 10  1  0  0  0
 10 11  1  0  0  0
 22 13  1  0  0  0
 11  3  1  0  0  0
 22 17  1  0  0  0
  9  6  1  0  0  0
M  END
> <minimizedAffinity>
-6.67415

> <CNNscore>
0.5261098146

> <CNNaffinity>
5.0101122856

> <CNN_VS>
2.6358692646

> <CNNaffinity_variance>
0.2004964799

$$$$



 22 25  0  0  0  0  0  0  0  0999 V2000
   -8.4738   -0.5882  -21.0064 O   0  0  0  0  0  0  0  0  0  0  0  0
   -7.6416   -1.7579  -21.4416 C   0  0  0  0  0  0  0  0  0  0  0  0
   -8.1453   -2.6797  -22.5124 N   0  0  0  0  0  0  0  0  0  0  0  0
   -7.3132   -3.8493  -22.9476 C   0  0  0  0  0  0  0  0  0  0  0  0
   -7.8169   -4.7711  -24.0184 C   0  0  0  0  0  0  0  0  0  0  0  0
   -9.1528   -4.5233  -24.6538 C   0  0  0  0  0  0  0  0  0  0  0  0
   -8.6240   -5.7538  -25.3293 C   0  0  0  0  0  0  0  0  0  0  0  0
   -9.8653   -5.8270  -26.1681 C   0  0  0  0  0  0  0  0  0  0  0  0
  -10.3943   -4.5965  -25.4927 C   0  0  0  0  0  0  0  0  0  0  0  0
   -9.9851   -3.3537  -24.2186 C   0  0  0  0  0  0  0  0  0  0  0  0
   -9.4813   -2.4319  -23.1478 C   0  0  0  0  0  0  0  0  0  0  0  0
   -6.3056   -2.0056  -20.8062 C   0  0  0  0  0  0  0  0  0  0  0  0
   -5.4204   -0.8495  -20.4460 C   0  0  0  0  0  0  0  0  0  0  0  0
   -5.3777   -0.3495  -19.0325 C   0  0  0  0  0  0  0  0  0  0  0  0
   -4.4925    0.8067  -18.6724 N   0  0  0  0  0  0  0  0  0  0  0  0
   -3.6499    1.4628  -19.7257 C   0  0  0  0  0  0  0  0  0  0  0  0
   -3.6926    0.9628  -21.1393 C   0  0  0  0  0  0  0  0  0  0  0  0
   -2.8501    1.6189  -22.1927 C   0  0  0  0  0  0  0  0  0  0  0  0
   -2.8928    1.1188  -23.6062 C   0  0  0  0  0  0  0  0  0  0  0  0
   -3.7781   -0.0373  -23.9664 C   0  0  0  0  0  0  0  0  0  0  0  0
   -4.6206   -0.6934  -22.9130 C   0  0  0  0  0  0  0  0  0  0  0  0
   -4.5779   -0.1934  -21.4995 C   0  0  0  0  0  0  0  0  0  0  0  0
  1  2  2  0  0  0
  2 12  1  0  0  0
 12 13  1  0  0  0
 13 14  2  0  0  0
 14 15  1  0  0  0
 15 16  2  0  0  0
 16 17  1  0  0  0
 17 18  2  0  0  0
 18 19  1  0  0  0
 19 20  2  0  0  0
 20 21  1  0  0  0
 21 22  2  0  0  0
  2  3  1  0  0  0
  3  4  1  0  0  0
  4  5  1  0  0  0
  5  6  1  0  0  0
  6  7  1  0  0  0
  7  8  1  0  0  0
  8  9  1  0  0  0
  6 10  1  0  0  0
 10 11  1  0  0  0
 22 13  1  0  0  0
 11  3  1  0  0  0
 22 17  1  0  0  0
  9  6  1  0  0  0
M  END
> <minimizedAffinity>
-6.56049

> <CNNscore>
0.5173465014

> <CNNaffinity>
5.0401854515

> <CNN_VS>
2.6075222492

> <CNNaffinity_variance>
0.1749811023

$$$$



 22 25  0  0  0  0  0  0  0  0999 V2000
   -7.1689    1.3435  -23.9716 O   0  0  0  0  0  0  0  0  0  0  0  0
   -7.5989    0.0991  -23.2528 C   0  0  0  0  0  0  0  0  0  0  0  0
   -9.0520   -0.2684  -23.1930 N   0  0  0  0  0  0  0  0  0  0  0  0
   -9.4820   -1.5127  -22.4743 C   0  0  0  0  0  0  0  0  0  0  0  0
  -10.9350   -1.8802  -22.4145 C   0  0  0  0  0  0  0  0  0  0  0  0
  -11.9581   -1.0033  -23.0735 C   0  0  0  0  0  0  0  0  0  0  0  0
  -12.7435   -2.1291  -22.4689 C   0  0  0  0  0  0  0  0  0  0  0  0
  -14.0130   -1.5229  -22.9891 C   0  0  0  0  0  0  0  0  0  0  0  0
  -13.2277   -0.3971  -23.5938 C   0  0  0  0  0  0  0  0  0  0  0  0
  -11.5281    0.2411  -23.7923 C   0  0  0  0  0  0  0  0  0  0  0  0
  -10.0751    0.6086  -23.8521 C   0  0  0  0  0  0  0  0  0  0  0  0
   -6.5758   -0.7778  -22.5938 C   0  0  0  0  0  0  0  0  0  0  0  0
   -6.0761   -0.4447  -21.2192 C   0  0  0  0  0  0  0  0  0  0  0  0
   -6.8254   -0.9252  -20.0119 C   0  0  0  0  0  0  0  0  0  0  0  0
   -6.3257   -0.5921  -18.6374 N   0  0  0  0  0  0  0  0  0  0  0  0
   -5.0766    0.2214  -18.4702 C   0  0  0  0  0  0  0  0  0  0  0  0
   -4.3272    0.7019  -19.6775 C   0  0  0  0  0  0  0  0  0  0  0  0
   -3.0782    1.5154  -19.5103 C   0  0  0  0  0  0  0  0  0  0  0  0
   -2.3289    1.9959  -20.7176 C   0  0  0  0  0  0  0  0  0  0  0  0
   -2.8286    1.6628  -22.0922 C   0  0  0  0  0  0  0  0  0  0  0  0
   -4.0777    0.8493  -22.2594 C   0  0  0  0  0  0  0  0  0  0  0  0
   -4.8270    0.3688  -21.0521 C   0  0  0  0  0  0  0  0  0  0  0  0
  1  2  2  0  0  0
  2 12  1  0  0  0
 12 13  1  0  0  0
 13 14  2  0  0  0
 14 15  1  0  0  0
 15 16  2  0  0  0
 16 17  1  0  0  0
 17 18  2  0  0  0
 18 19  1  0  0  0
 19 20  2  0  0  0
 20 21  1  0  0  0
 21 22  2  0  0  0
  2  3  1  0  0  0
  3  4  1  0  0  0
  4  5  1  0  0  0
  5  6  1  0  0  0
  6  7  1  0  0  0
  7  8  1  0  0  0
  8  9  1  0  0  0
  6 10  1  0  0  0
 10 11  1  0  0  0
 22 13  1  0  0  0
 11  3  1  0  0  0
 22 17  1  0  0  0
  9  6  1  0  0  0
M  END
> <minimizedAffinity>
-6.53152

> <CNNscore>
0.4900552034

> <CNNaffinity>
5.1729617119

> <CNN_VS>
2.5350368023

> <CNNaffinity_variance>
0.0764766261

$$$$



 22 25  0  0  0  0  0  0  0  0999 V2000
   -8.4955   -1.7476  -21.1088 O   0  0  0  0  0  0  0  0  0  0  0  0
   -7.9014   -0.7302  -22.0372 C   0  0  0  0  0  0  0  0  0  0  0  0
   -6.6786    0.0357  -21.6272 N   0  0  0  0  0  0  0  0  0  0  0  0
   -6.0845    1.0531  -22.5555 C   0  0  0  0  0  0  0  0  0  0  0  0
   -4.8617    1.8190  -22.1454 C   0  0  0  0  0  0  0  0  0  0  0  0
   -4.2330    1.5676  -20.8070 C   0  0  0  0  0  0  0  0  0  0  0  0
   -3.3824    2.6272  -21.4424 C   0  0  0  0  0  0  0  0  0  0  0  0
   -2.5038    2.6507  -20.2270 C   0  0  0  0  0  0  0  0  0  0  0  0
   -3.3542    1.5911  -19.5915 C   0  0  0  0  0  0  0  0  0  0  0  0
   -4.8271    0.5501  -19.8785 C   0  0  0  0  0  0  0  0  0  0  0  0
   -6.0499   -0.2158  -20.2886 C   0  0  0  0  0  0  0  0  0  0  0  0
   -8.5300   -0.4787  -23.3757 C   0  0  0  0  0  0  0  0  0  0  0  0
   -9.8469    0.2340  -23.4638 C   0  0  0  0  0  0  0  0  0  0  0  0
   -9.8874    1.6970  -23.7925 C   0  0  0  0  0  0  0  0  0  0  0  0
  -11.2043    2.4097  -23.8806 N   0  0  0  0  0  0  0  0  0  0  0  0
  -12.4807    1.6595  -23.6399 C   0  0  0  0  0  0  0  0  0  0  0  0
  -12.4403    0.1965  -23.3111 C   0  0  0  0  0  0  0  0  0  0  0  0
  -13.7167   -0.5537  -23.0704 C   0  0  0  0  0  0  0  0  0  0  0  0
  -13.6762   -2.0166  -22.7416 C   0  0  0  0  0  0  0  0  0  0  0  0
  -12.3593   -2.7293  -22.6536 C   0  0  0  0  0  0  0  0  0  0  0  0
  -11.0829   -1.9792  -22.8943 C   0  0  0  0  0  0  0  0  0  0  0  0
  -11.1234   -0.5162  -23.2230 C   0  0  0  0  0  0  0  0  0  0  0  0
  1  2  2  0  0  0
  2 12  1  0  0  0
 12 13  1  0  0  0
 13 14  2  0  0  0
 14 15  1  0  0  0
 15 16  2  0  0  0
 16 17  1  0  0  0
 17 18  2  0  0  0
 18 19  1  0  0  0
 19 20  2  0  0  0
 20 21  1  0  0  0
 21 22  2  0  0  0
  2  3  1  0  0  0
  3  4  1  0  0  0
  4  5  1  0  0  0
  5  6  1  0  0  0
  6  7  1  0  0  0
  7  8  1  0  0  0
  8  9  1  0  0  0
  6 10  1  0  0  0
 10 11  1  0  0  0
 22 13  1  0  0  0
 11  3  1  0  0  0
 22 17  1  0  0  0
  9  6  1  0  0  0
M  END
> <minimizedAffinity>
-6.39927

> <CNNscore>
0.4427762628

> <CNNaffinity>
4.7423677444

> <CNN_VS>
2.0998079777

> <CNNaffinity_variance>
0.1023223624

$$$$
