


 38 42  0  0  0  0  0  0  0  0999 V2000
   -7.1583   -1.0755  -23.7768 N   0  0  0  0  0  0  0  0  0  0  0  0
   -7.5949    0.3547  -23.8949 C   0  0  0  0  0  0  0  0  0  0  0  0
   -9.0486    0.7068  -23.7826 C   0  0  0  0  0  0  0  0  0  0  0  0
  -10.4594    1.2083  -23.6919 C   0  0  0  0  0  0  0  0  0  0  0  0
  -11.5875    0.7888  -23.5253 O   0  0  0  0  0  0  0  0  0  0  0  0
  -10.4338    2.6980  -23.8653 N   0  0  0  0  0  0  0  0  0  0  0  0
   -9.0073    3.1172  -24.0632 C   0  0  0  0  0  0  0  0  0  0  0  0
   -8.1512    1.8865  -24.0121 C   0  0  0  0  0  0  0  0  0  0  0  0
  -10.0658   -0.3714  -23.5521 C   0  0  0  0  0  0  0  0  0  0  0  0
  -11.5196   -0.0193  -23.4398 C   0  0  0  0  0  0  0  0  0  0  0  0
  -12.5367   -1.0974  -23.2093 C   0  0  0  0  0  0  0  0  0  0  0  0
  -13.9905   -0.7453  -23.0970 Cl  0  0  0  0  0  0  0  0  0  0  0  0
  -12.1000   -2.5276  -23.0912 C   0  0  0  0  0  0  0  0  0  0  0  0
  -10.6463   -2.8797  -23.2036 C   0  0  0  0  0  0  0  0  0  0  0  0
   -9.6292   -1.8015  -23.4340 C   0  0  0  0  0  0  0  0  0  0  0  0
   -8.1754   -2.1536  -23.5464 C   0  0  0  0  0  0  0  0  0  0  0  0
   -7.7388   -3.5838  -23.4283 O   0  0  0  0  0  0  0  0  0  0  0  0
  -11.6256    3.6086  -23.8445 C   0  0  0  0  0  0  0  0  0  0  0  0
  -12.4514    3.7349  -22.5987 C   0  0  0  0  0  0  0  0  0  0  0  0
  -13.6432    4.6455  -22.5779 N   0  0  0  0  0  0  0  0  0  0  0  0
  -14.0091    5.4299  -23.8029 C   0  0  0  0  0  0  0  0  0  0  0  0
  -13.1833    5.3037  -25.0488 C   0  0  0  0  0  0  0  0  0  0  0  0
  -13.5493    6.0881  -26.2739 C   0  0  0  0  0  0  0  0  0  0  0  0
  -12.7235    5.9618  -27.5197 C   0  0  0  0  0  0  0  0  0  0  0  0
  -11.5317    5.0512  -27.5405 C   0  0  0  0  0  0  0  0  0  0  0  0
  -11.1657    4.2668  -26.3154 C   0  0  0  0  0  0  0  0  0  0  0  0
  -11.9916    4.3930  -25.0696 C   0  0  0  0  0  0  0  0  0  0  0  0
   -5.7045   -1.4275  -23.8892 C   0  0  0  0  0  0  0  0  0  0  0  0
   -4.0697   -3.4712  -26.8727 C   0  0  0  0  0  0  0  0  0  0  0  0
   -4.6618   -3.1484  -25.5328 N   0  0  0  0  0  0  0  0  0  0  0  0
   -5.1124   -1.7503  -25.2291 C   0  0  0  0  0  0  0  0  0  0  0  0
   -4.9708   -0.6749  -26.2652 O   0  0  0  0  0  0  0  0  0  0  0  0
   -4.7548   -3.8542  -24.8528 H   0  0  0  0  0  0  0  0  0  0  0  0
   -6.6595    1.8433  -24.1638 C   0  0  0  0  0  0  0  0  0  0  0  0
   -5.8303    3.0278  -23.7649 O   0  0  0  0  0  0  0  0  0  0  0  0
   -4.9764    2.9650  -22.5332 C   0  0  0  0  0  0  0  0  0  0  0  0
   -3.8390    3.9273  -22.3594 C   0  0  0  0  0  0  0  0  0  0  0  0
   -5.2600    1.9400  -21.4755 C   0  0  0  0  0  0  0  0  0  0  0  0
 29 30  1  0  0  0
 30 31  1  0  0  0
 31 32  2  0  0  0
 31 28  1  0  0  0
 28  1  1  0  0  0
  1  2  1  0  0  0
  3  2  1  0  0  0
  3  4  1  0  0  0
  4  5  2  0  0  0
  4  6  1  0  0  0
  6 18  1  0  0  0
 18 19  2  0  0  0
 19 20  1  0  0  0
 20 21  2  0  0  0
 21 22  1  0  0  0
 22 23  2  0  0  0
 23 24  1  0  0  0
 24 25  2  0  0  0
 25 26  1  0  0  0
 26 27  2  0  0  0
  6  7  1  0  0  0
  7  8  1  0  0  0
  8 34  1  0  0  0
 34 35  1  0  0  0
 35 36  1  0  0  0
 36 37  1  0  0  0
 36 38  1  0  0  0
  3  9  1  0  0  0
  9 10  2  0  0  0
 10 11  1  0  0  0
 11 12  1  0  0  0
 11 13  2  0  0  0
 13 14  1  0  0  0
 14 15  2  0  0  0
 15 16  1  0  0  0
 16 17  2  0  0  0
 16  1  1  0  0  0
  8  3  1  0  0  0
 15  9  1  0  0  0
 27 18  1  0  0  0
 27 22  1  0  0  0
 30 33  1  0  0  0
M  END
> <minimizedAffinity>
-6.88736

> <CNNscore>
0.7333623767

> <CNNaffinity>
6.7243337631

> <CNN_VS>
4.9313735962

> <CNNaffinity_variance>
0.0846218541

$$$$



 38 42  0  0  0  0  0  0  0  0999 V2000
   -7.0536   -0.7347  -22.9268 N   0  0  0  0  0  0  0  0  0  0  0  0
   -7.5306    0.6688  -23.1560 C   0  0  0  0  0  0  0  0  0  0  0  0
   -8.9986    0.9514  -23.2793 C   0  0  0  0  0  0  0  0  0  0  0  0
  -10.4275    1.3847  -23.4221 C   0  0  0  0  0  0  0  0  0  0  0  0
  -11.5477    0.9143  -23.4172 O   0  0  0  0  0  0  0  0  0  0  0  0
  -10.4424    2.8692  -23.6371 N   0  0  0  0  0  0  0  0  0  0  0  0
   -9.0227    3.3533  -23.6271 C   0  0  0  0  0  0  0  0  0  0  0  0
   -8.1304    2.1680  -23.4060 C   0  0  0  0  0  0  0  0  0  0  0  0
   -9.9896   -0.1697  -23.1733 C   0  0  0  0  0  0  0  0  0  0  0  0
  -11.4576    0.1129  -23.2966 C   0  0  0  0  0  0  0  0  0  0  0  0
  -12.4486   -1.0081  -23.1906 C   0  0  0  0  0  0  0  0  0  0  0  0
  -13.9166   -0.7256  -23.3139 Cl  0  0  0  0  0  0  0  0  0  0  0  0
  -11.9716   -2.4117  -22.9614 C   0  0  0  0  0  0  0  0  0  0  0  0
  -10.5036   -2.6942  -22.8381 C   0  0  0  0  0  0  0  0  0  0  0  0
   -9.5127   -1.5732  -22.9441 C   0  0  0  0  0  0  0  0  0  0  0  0
   -8.0446   -1.8557  -22.8208 C   0  0  0  0  0  0  0  0  0  0  0  0
   -7.5677   -3.2593  -22.5916 O   0  0  0  0  0  0  0  0  0  0  0  0
  -11.6628    3.7201  -23.8284 C   0  0  0  0  0  0  0  0  0  0  0  0
  -12.6085    3.9428  -22.6856 C   0  0  0  0  0  0  0  0  0  0  0  0
  -13.8289    4.7937  -22.8769 N   0  0  0  0  0  0  0  0  0  0  0  0
  -14.1035    5.4220  -24.2110 C   0  0  0  0  0  0  0  0  0  0  0  0
  -13.1577    5.1993  -25.3538 C   0  0  0  0  0  0  0  0  0  0  0  0
  -13.4324    5.8275  -26.6880 C   0  0  0  0  0  0  0  0  0  0  0  0
  -12.4866    5.6048  -27.8307 C   0  0  0  0  0  0  0  0  0  0  0  0
  -11.2662    4.7538  -27.6394 C   0  0  0  0  0  0  0  0  0  0  0  0
  -10.9916    4.1256  -26.3053 C   0  0  0  0  0  0  0  0  0  0  0  0
  -11.9374    4.3483  -25.1625 C   0  0  0  0  0  0  0  0  0  0  0  0
   -5.5856   -1.0173  -22.8035 C   0  0  0  0  0  0  0  0  0  0  0  0
   -3.1674    1.1751  -20.5462 C   0  0  0  0  0  0  0  0  0  0  0  0
   -3.9294    0.6777  -21.7386 N   0  0  0  0  0  0  0  0  0  0  0  0
   -4.8237   -0.5198  -21.6110 C   0  0  0  0  0  0  0  0  0  0  0  0
   -4.9561   -1.2198  -20.2910 O   0  0  0  0  0  0  0  0  0  0  0  0
   -3.8425    1.1371  -22.6050 H   0  0  0  0  0  0  0  0  0  0  0  0
   -6.6328    2.1947  -23.3256 C   0  0  0  0  0  0  0  0  0  0  0  0
   -5.9490    3.1394  -22.3824 O   0  0  0  0  0  0  0  0  0  0  0  0
   -5.8679    4.6006  -22.7119 C   0  0  0  0  0  0  0  0  0  0  0  0
   -6.7006    5.5886  -21.9501 C   0  0  0  0  0  0  0  0  0  0  0  0
   -4.9540    5.0737  -23.8033 C   0  0  0  0  0  0  0  0  0  0  0  0
 29 30  1  0  0  0
 30 31  1  0  0  0
 31 32  2  0  0  0
 31 28  1  0  0  0
 28  1  1  0  0  0
  1  2  1  0  0  0
  3  2  1  0  0  0
  3  4  1  0  0  0
  4  5  2  0  0  0
  4  6  1  0  0  0
  6 18  1  0  0  0
 18 19  2  0  0  0
 19 20  1  0  0  0
 20 21  2  0  0  0
 21 22  1  0  0  0
 22 23  2  0  0  0
 23 24  1  0  0  0
 24 25  2  0  0  0
 25 26  1  0  0  0
 26 27  2  0  0  0
  6  7  1  0  0  0
  7  8  1  0  0  0
  8 34  1  0  0  0
 34 35  1  0  0  0
 35 36  1  0  0  0
 36 37  1  0  0  0
 36 38  1  0  0  0
  3  9  1  0  0  0
  9 10  2  0  0  0
 10 11  1  0  0  0
 11 12  1  0  0  0
 11 13  2  0  0  0
 13 14  1  0  0  0
 14 15  2  0  0  0
 15 16  1  0  0  0
 16 17  2  0  0  0
 16  1  1  0  0  0
  8  3  1  0  0  0
 15  9  1  0  0  0
 27 18  1  0  0  0
 27 22  1  0  0  0
 30 33  1  0  0  0
M  END
> <minimizedAffinity>
-7.36280

> <CNNscore>
0.6956242323

> <CNNaffinity>
6.9112915993

> <CNN_VS>
4.8076620102

> <CNNaffinity_variance>
0.1134949699

$$$$



 38 42  0  0  0  0  0  0  0  0999 V2000
   -5.4521   -6.0873  -23.4378 N   0  0  0  0  0  0  0  0  0  0  0  0
   -6.0285   -4.8164  -22.8878 C   0  0  0  0  0  0  0  0  0  0  0  0
   -7.0587   -4.0591  -23.6721 C   0  0  0  0  0  0  0  0  0  0  0  0
   -8.0907   -3.1982  -24.3384 C   0  0  0  0  0  0  0  0  0  0  0  0
   -8.7505   -3.1563  -25.3578 O   0  0  0  0  0  0  0  0  0  0  0  0
   -8.3742   -2.0329  -23.4374 N   0  0  0  0  0  0  0  0  0  0  0  0
   -7.5174   -2.1736  -22.2142 C   0  0  0  0  0  0  0  0  0  0  0  0
   -6.7044   -3.4258  -22.3593 C   0  0  0  0  0  0  0  0  0  0  0  0
   -7.5126   -4.5727  -25.0064 C   0  0  0  0  0  0  0  0  0  0  0  0
   -8.5428   -3.8154  -25.7907 C   0  0  0  0  0  0  0  0  0  0  0  0
   -8.9966   -4.3290  -27.1249 C   0  0  0  0  0  0  0  0  0  0  0  0
  -10.0268   -3.5717  -27.9092 Cl  0  0  0  0  0  0  0  0  0  0  0  0
   -8.4201   -5.6000  -27.6749 C   0  0  0  0  0  0  0  0  0  0  0  0
   -7.3899   -6.3573  -26.8906 C   0  0  0  0  0  0  0  0  0  0  0  0
   -6.9361   -5.8436  -25.5564 C   0  0  0  0  0  0  0  0  0  0  0  0
   -5.9059   -6.6009  -24.7720 C   0  0  0  0  0  0  0  0  0  0  0  0
   -5.3294   -7.8719  -25.3220 O   0  0  0  0  0  0  0  0  0  0  0  0
   -9.3442   -0.9221  -23.7114 C   0  0  0  0  0  0  0  0  0  0  0  0
   -8.8606    0.3649  -24.3113 C   0  0  0  0  0  0  0  0  0  0  0  0
   -9.8306    1.4758  -24.5853 N   0  0  0  0  0  0  0  0  0  0  0  0
  -11.2841    1.2997  -24.2595 C   0  0  0  0  0  0  0  0  0  0  0  0
  -11.7677    0.0127  -23.6596 C   0  0  0  0  0  0  0  0  0  0  0  0
  -13.2213   -0.1634  -23.3338 C   0  0  0  0  0  0  0  0  0  0  0  0
  -13.7048   -1.4504  -22.7339 C   0  0  0  0  0  0  0  0  0  0  0  0
  -12.7348   -2.5613  -22.4599 C   0  0  0  0  0  0  0  0  0  0  0  0
  -11.2813   -2.3852  -22.7857 C   0  0  0  0  0  0  0  0  0  0  0  0
  -10.7977   -1.0982  -23.3856 C   0  0  0  0  0  0  0  0  0  0  0  0
   -4.4218   -6.8446  -22.6535 C   0  0  0  0  0  0  0  0  0  0  0  0
   -1.6274   -8.6326  -24.8317 C   0  0  0  0  0  0  0  0  0  0  0  0
   -2.9578   -8.3177  -24.2144 N   0  0  0  0  0  0  0  0  0  0  0  0
   -3.0914   -7.1595  -23.2707 C   0  0  0  0  0  0  0  0  0  0  0  0
   -1.8947   -6.3161  -22.9441 O   0  0  0  0  0  0  0  0  0  0  0  0
   -3.7433   -8.8712  -24.4288 H   0  0  0  0  0  0  0  0  0  0  0  0
   -5.7114   -3.9523  -21.3660 C   0  0  0  0  0  0  0  0  0  0  0  0
   -5.1402   -3.0404  -20.3210 O   0  0  0  0  0  0  0  0  0  0  0  0
   -5.3634   -1.5600  -20.4143 C   0  0  0  0  0  0  0  0  0  0  0  0
   -6.2888   -0.8789  -19.4501 C   0  0  0  0  0  0  0  0  0  0  0  0
   -4.6611   -0.7608  -21.4717 C   0  0  0  0  0  0  0  0  0  0  0  0
 29 30  1  0  0  0
 30 31  1  0  0  0
 31 32  2  0  0  0
 31 28  1  0  0  0
 28  1  1  0  0  0
  1  2  1  0  0  0
  3  2  1  0  0  0
  3  4  1  0  0  0
  4  5  2  0  0  0
  4  6  1  0  0  0
  6 18  1  0  0  0
 18 19  2  0  0  0
 19 20  1  0  0  0
 20 21  2  0  0  0
 21 22  1  0  0  0
 22 23  2  0  0  0
 23 24  1  0  0  0
 24 25  2  0  0  0
 25 26  1  0  0  0
 26 27  2  0  0  0
  6  7  1  0  0  0
  7  8  1  0  0  0
  8 34  1  0  0  0
 34 35  1  0  0  0
 35 36  1  0  0  0
 36 37  1  0  0  0
 36 38  1  0  0  0
  3  9  1  0  0  0
  9 10  2  0  0  0
 10 11  1  0  0  0
 11 12  1  0  0  0
 11 13  2  0  0  0
 13 14  1  0  0  0
 14 15  2  0  0  0
 15 16  1  0  0  0
 16 17  2  0  0  0
 16  1  1  0  0  0
  8  3  1  0  0  0
 15  9  1  0  0  0
 27 18  1  0  0  0
 27 22  1  0  0  0
 30 33  1  0  0  0
M  END
> <minimizedAffinity>
-7.35078

> <CNNscore>
0.4705446064

> <CNNaffinity>
6.6584038734

> <CNN_VS>
3.1330759525

> <CNNaffinity_variance>
0.0772958696

$$$$



 38 42  0  0  0  0  0  0  0  0999 V2000
   -7.1038   -1.0201  -21.6946 N   0  0  0  0  0  0  0  0  0  0  0  0
   -7.1590    0.3008  -22.4031 C   0  0  0  0  0  0  0  0  0  0  0  0
   -8.4228    0.7338  -23.0852 C   0  0  0  0  0  0  0  0  0  0  0  0
   -9.6101    1.2978  -23.8078 C   0  0  0  0  0  0  0  0  0  0  0  0
  -10.7605    1.0109  -24.0736 O   0  0  0  0  0  0  0  0  0  0  0  0
   -9.2215    2.6352  -24.3648 N   0  0  0  0  0  0  0  0  0  0  0  0
   -7.7940    2.8979  -23.9863 C   0  0  0  0  0  0  0  0  0  0  0  0
   -7.3004    1.7228  -23.1955 C   0  0  0  0  0  0  0  0  0  0  0  0
   -9.6315   -0.1542  -23.0587 C   0  0  0  0  0  0  0  0  0  0  0  0
  -10.8953    0.2788  -23.7407 C   0  0  0  0  0  0  0  0  0  0  0  0
  -12.1040   -0.6091  -23.7142 C   0  0  0  0  0  0  0  0  0  0  0  0
  -13.3679   -0.1761  -24.3962 Cl  0  0  0  0  0  0  0  0  0  0  0  0
  -12.0487   -1.9301  -23.0056 C   0  0  0  0  0  0  0  0  0  0  0  0
  -10.7849   -2.3631  -22.3236 C   0  0  0  0  0  0  0  0  0  0  0  0
   -9.5763   -1.4751  -22.3501 C   0  0  0  0  0  0  0  0  0  0  0  0
   -8.3124   -1.9081  -21.6681 C   0  0  0  0  0  0  0  0  0  0  0  0
   -8.2572   -3.2290  -20.9595 O   0  0  0  0  0  0  0  0  0  0  0  0
  -10.1053    3.5495  -25.1604 C   0  0  0  0  0  0  0  0  0  0  0  0
   -9.8184    3.7937  -26.6124 C   0  0  0  0  0  0  0  0  0  0  0  0
  -10.7022    4.7079  -27.4081 N   0  0  0  0  0  0  0  0  0  0  0  0
  -11.8728    5.3780  -26.7518 C   0  0  0  0  0  0  0  0  0  0  0  0
  -12.1596    5.1338  -25.2999 C   0  0  0  0  0  0  0  0  0  0  0  0
  -13.3303    5.8039  -24.6436 C   0  0  0  0  0  0  0  0  0  0  0  0
  -13.6171    5.5596  -23.1916 C   0  0  0  0  0  0  0  0  0  0  0  0
  -12.7333    4.6454  -22.3960 C   0  0  0  0  0  0  0  0  0  0  0  0
  -11.5627    3.9753  -23.0522 C   0  0  0  0  0  0  0  0  0  0  0  0
  -11.2759    4.2195  -24.5042 C   0  0  0  0  0  0  0  0  0  0  0  0
   -5.8398   -1.4531  -21.0125 C   0  0  0  0  0  0  0  0  0  0  0  0
   -5.4375   -5.3335  -21.7408 C   0  0  0  0  0  0  0  0  0  0  0  0
   -5.7164   -3.8742  -21.9470 N   0  0  0  0  0  0  0  0  0  0  0  0
   -5.5609   -2.9125  -20.8064 C   0  0  0  0  0  0  0  0  0  0  0  0
   -5.1265   -3.4101  -19.4596 O   0  0  0  0  0  0  0  0  0  0  0  0
   -6.0015   -3.5476  -22.8309 H   0  0  0  0  0  0  0  0  0  0  0  0
   -5.9257    1.5644  -22.6166 C   0  0  0  0  0  0  0  0  0  0  0  0
   -5.4113    2.5621  -21.6218 O   0  0  0  0  0  0  0  0  0  0  0  0
   -4.0318    2.4108  -21.0524 C   0  0  0  0  0  0  0  0  0  0  0  0
   -2.9039    3.2417  -21.5884 C   0  0  0  0  0  0  0  0  0  0  0  0
   -3.7803    1.4286  -19.9469 C   0  0  0  0  0  0  0  0  0  0  0  0
 29 30  1  0  0  0
 30 31  1  0  0  0
 31 32  2  0  0  0
 31 28  1  0  0  0
 28  1  1  0  0  0
  1  2  1  0  0  0
  3  2  1  0  0  0
  3  4  1  0  0  0
  4  5  2  0  0  0
  4  6  1  0  0  0
  6 18  1  0  0  0
 18 19  2  0  0  0
 19 20  1  0  0  0
 20 21  2  0  0  0
 21 22  1  0  0  0
 22 23  2  0  0  0
 23 24  1  0  0  0
 24 25  2  0  0  0
 25 26  1  0  0  0
 26 27  2  0  0  0
  6  7  1  0  0  0
  7  8  1  0  0  0
  8 34  1  0  0  0
 34 35  1  0  0  0
 35 36  1  0  0  0
 36 37  1  0  0  0
 36 38  1  0  0  0
  3  9  1  0  0  0
  9 10  2  0  0  0
 10 11  1  0  0  0
 11 12  1  0  0  0
 11 13  2  0  0  0
 13 14  1  0  0  0
 14 15  2  0  0  0
 15 16  1  0  0  0
 16 17  2  0  0  0
 16  1  1  0  0  0
  8  3  1  0  0  0
 15  9  1  0  0  0
 27 18  1  0  0  0
 27 22  1  0  0  0
 30 33  1  0  0  0
M  END
> <minimizedAffinity>
-7.15605

> <CNNscore>
0.4142693877

> <CNNaffinity>
6.4744577408

> <CNN_VS>
2.6821696758

> <CNNaffinity_variance>
0.0295548532

$$$$



 38 42  0  0  0  0  0  0  0  0999 V2000
  -10.5084    3.6400  -23.9927 N   0  0  0  0  0  0  0  0  0  0  0  0
   -9.2569    2.8146  -23.9431 C   0  0  0  0  0  0  0  0  0  0  0  0
   -9.3437    1.3330  -23.7257 C   0  0  0  0  0  0  0  0  0  0  0  0
   -9.2738   -0.1507  -23.5166 C   0  0  0  0  0  0  0  0  0  0  0  0
  -10.0094   -1.1015  -23.3397 O   0  0  0  0  0  0  0  0  0  0  0  0
   -7.8293   -0.5543  -23.5382 N   0  0  0  0  0  0  0  0  0  0  0  0
   -7.0064    0.6799  -23.7606 C   0  0  0  0  0  0  0  0  0  0  0  0
   -7.9424    1.8463  -23.8765 C   0  0  0  0  0  0  0  0  0  0  0  0
  -10.6821    0.6767  -23.5579 C   0  0  0  0  0  0  0  0  0  0  0  0
  -10.7690   -0.8049  -23.3405 C   0  0  0  0  0  0  0  0  0  0  0  0
  -12.1073   -1.4610  -23.1726 C   0  0  0  0  0  0  0  0  0  0  0  0
  -12.1942   -2.9427  -22.9552 Cl  0  0  0  0  0  0  0  0  0  0  0  0
  -13.3588   -0.6356  -23.2222 C   0  0  0  0  0  0  0  0  0  0  0  0
  -13.2720    0.8460  -23.4396 C   0  0  0  0  0  0  0  0  0  0  0  0
  -11.9336    1.5021  -23.6074 C   0  0  0  0  0  0  0  0  0  0  0  0
  -11.8467    2.9838  -23.8249 C   0  0  0  0  0  0  0  0  0  0  0  0
  -13.0982    3.8092  -23.8744 O   0  0  0  0  0  0  0  0  0  0  0  0
   -7.3005   -1.9476  -23.3673 C   0  0  0  0  0  0  0  0  0  0  0  0
   -6.6763   -2.3587  -22.0668 C   0  0  0  0  0  0  0  0  0  0  0  0
   -6.1475   -3.7519  -21.8960 N   0  0  0  0  0  0  0  0  0  0  0  0
   -6.2429   -4.7341  -23.0256 C   0  0  0  0  0  0  0  0  0  0  0  0
   -6.8672   -4.3230  -24.3262 C   0  0  0  0  0  0  0  0  0  0  0  0
   -6.9626   -5.3053  -25.4559 C   0  0  0  0  0  0  0  0  0  0  0  0
   -7.5869   -4.8941  -26.7564 C   0  0  0  0  0  0  0  0  0  0  0  0
   -8.1157   -3.5008  -26.9272 C   0  0  0  0  0  0  0  0  0  0  0  0
   -8.0202   -2.5187  -25.7975 C   0  0  0  0  0  0  0  0  0  0  0  0
   -7.3960   -2.9298  -24.4970 C   0  0  0  0  0  0  0  0  0  0  0  0
  -10.4215    5.1216  -24.2101 C   0  0  0  0  0  0  0  0  0  0  0  0
  -12.3369    6.2643  -27.4927 C   0  0  0  0  0  0  0  0  0  0  0  0
  -12.0746    5.6893  -26.1323 N   0  0  0  0  0  0  0  0  0  0  0  0
  -10.6839    5.6967  -25.5704 C   0  0  0  0  0  0  0  0  0  0  0  0
   -9.5554    6.2792  -26.3688 O   0  0  0  0  0  0  0  0  0  0  0  0
  -12.8152    5.3069  -25.6083 H   0  0  0  0  0  0  0  0  0  0  0  0
   -7.5465    3.2753  -24.1033 C   0  0  0  0  0  0  0  0  0  0  0  0
   -6.2204    3.7735  -23.6104 O   0  0  0  0  0  0  0  0  0  0  0  0
   -6.1259    5.1071  -22.9303 C   0  0  0  0  0  0  0  0  0  0  0  0
   -7.2692    5.6074  -22.0982 C   0  0  0  0  0  0  0  0  0  0  0  0
   -4.8879    5.9404  -23.0822 C   0  0  0  0  0  0  0  0  0  0  0  0
 29 30  1  0  0  0
 30 31  1  0  0  0
 31 32  2  0  0  0
 31 28  1  0  0  0
 28  1  1  0  0  0
  1  2  1  0  0  0
  3  2  1  0  0  0
  3  4  1  0  0  0
  4  5  2  0  0  0
  4  6  1  0  0  0
  6 18  1  0  0  0
 18 19  2  0  0  0
 19 20  1  0  0  0
 20 21  2  0  0  0
 21 22  1  0  0  0
 22 23  2  0  0  0
 23 24  1  0  0  0
 24 25  2  0  0  0
 25 26  1  0  0  0
 26 27  2  0  0  0
  6  7  1  0  0  0
  7  8  1  0  0  0
  8 34  1  0  0  0
 34 35  1  0  0  0
 35 36  1  0  0  0
 36 37  1  0  0  0
 36 38  1  0  0  0
  3  9  1  0  0  0
  9 10  2  0  0  0
 10 11  1  0  0  0
 11 12  1  0  0  0
 11 13  2  0  0  0
 13 14  1  0  0  0
 14 15  2  0  0  0
 15 16  1  0  0  0
 16 17  2  0  0  0
 16  1  1  0  0  0
  8  3  1  0  0  0
 15  9  1  0  0  0
 27 18  1  0  0  0
 27 22  1  0  0  0
 30 33  1  0  0  0
M  END
> <minimizedAffinity>
-6.84492

> <CNNscore>
0.3977373838

> <CNNaffinity>
6.5636992455

> <CNN_VS>
2.6106286049

> <CNNaffinity_variance>
0.3094027340

$$$$



 38 42  0  0  0  0  0  0  0  0999 V2000
   -9.2084    2.6995  -24.6463 N   0  0  0  0  0  0  0  0  0  0  0  0
   -8.2946    1.5141  -24.7449 C   0  0  0  0  0  0  0  0  0  0  0  0
   -8.8000    0.1463  -24.3931 C   0  0  0  0  0  0  0  0  0  0  0  0
   -9.1618   -1.2745  -24.0763 C   0  0  0  0  0  0  0  0  0  0  0  0
  -10.1112   -1.9307  -23.6964 O   0  0  0  0  0  0  0  0  0  0  0  0
   -7.9494   -2.1255  -24.3132 N   0  0  0  0  0  0  0  0  0  0  0  0
   -6.8383   -1.2305  -24.7764 C   0  0  0  0  0  0  0  0  0  0  0  0
   -7.3640    0.1735  -24.8257 C   0  0  0  0  0  0  0  0  0  0  0  0
  -10.2191   -0.0360  -23.9426 C   0  0  0  0  0  0  0  0  0  0  0  0
  -10.7245   -1.4038  -23.5908 C   0  0  0  0  0  0  0  0  0  0  0  0
  -12.1436   -1.5860  -23.1403 C   0  0  0  0  0  0  0  0  0  0  0  0
  -12.6490   -2.9538  -22.7885 Cl  0  0  0  0  0  0  0  0  0  0  0  0
  -13.0573   -0.4006  -23.0417 C   0  0  0  0  0  0  0  0  0  0  0  0
  -12.5520    0.9672  -23.3935 C   0  0  0  0  0  0  0  0  0  0  0  0
  -11.1329    1.1495  -23.8440 C   0  0  0  0  0  0  0  0  0  0  0  0
  -10.6275    2.5173  -24.1958 C   0  0  0  0  0  0  0  0  0  0  0  0
  -11.5412    3.7028  -24.0972 O   0  0  0  0  0  0  0  0  0  0  0  0
   -7.8633   -3.6106  -24.1207 C   0  0  0  0  0  0  0  0  0  0  0  0
   -7.2697   -4.1706  -22.8621 C   0  0  0  0  0  0  0  0  0  0  0  0
   -7.1836   -5.6557  -22.6696 N   0  0  0  0  0  0  0  0  0  0  0  0
   -7.6911   -6.5807  -23.7357 C   0  0  0  0  0  0  0  0  0  0  0  0
   -8.2848   -6.0207  -24.9943 C   0  0  0  0  0  0  0  0  0  0  0  0
   -8.7923   -6.9459  -26.0605 C   0  0  0  0  0  0  0  0  0  0  0  0
   -9.3860   -6.3858  -27.3190 C   0  0  0  0  0  0  0  0  0  0  0  0
   -9.4721   -4.9007  -27.5115 C   0  0  0  0  0  0  0  0  0  0  0  0
   -8.9645   -3.9756  -26.4454 C   0  0  0  0  0  0  0  0  0  0  0  0
   -8.3709   -4.5356  -25.1868 C   0  0  0  0  0  0  0  0  0  0  0  0
   -8.7030    4.0673  -24.9981 C   0  0  0  0  0  0  0  0  0  0  0  0
   -7.0211    5.8285  -21.8645 C   0  0  0  0  0  0  0  0  0  0  0  0
   -8.0433    5.1597  -22.7351 N   0  0  0  0  0  0  0  0  0  0  0  0
   -7.6807    4.7361  -24.1275 C   0  0  0  0  0  0  0  0  0  0  0  0
   -6.2959    4.9811  -24.6495 O   0  0  0  0  0  0  0  0  0  0  0  0
   -8.9521    4.9989  -22.3925 H   0  0  0  0  0  0  0  0  0  0  0  0
   -6.5896    1.3909  -25.2358 C   0  0  0  0  0  0  0  0  0  0  0  0
   -5.1331    1.5032  -24.8956 O   0  0  0  0  0  0  0  0  0  0  0  0
   -4.6927    1.4670  -23.4622 C   0  0  0  0  0  0  0  0  0  0  0  0
   -3.5597    0.5755  -23.0480 C   0  0  0  0  0  0  0  0  0  0  0  0
   -5.3852    2.3222  -22.4430 C   0  0  0  0  0  0  0  0  0  0  0  0
 29 30  1  0  0  0
 30 31  1  0  0  0
 31 32  2  0  0  0
 31 28  1  0  0  0
 28  1  1  0  0  0
  1  2  1  0  0  0
  3  2  1  0  0  0
  3  4  1  0  0  0
  4  5  2  0  0  0
  4  6  1  0  0  0
  6 18  1  0  0  0
 18 19  2  0  0  0
 19 20  1  0  0  0
 20 21  2  0  0  0
 21 22  1  0  0  0
 22 23  2  0  0  0
 23 24  1  0  0  0
 24 25  2  0  0  0
 25 26  1  0  0  0
 26 27  2  0  0  0
  6  7  1  0  0  0
  7  8  1  0  0  0
  8 34  1  0  0  0
 34 35  1  0  0  0
 35 36  1  0  0  0
 36 37  1  0  0  0
 36 38  1  0  0  0
  3  9  1  0  0  0
  9 10  2  0  0  0
 10 11  1  0  0  0
 11 12  1  0  0  0
 11 13  2  0  0  0
 13 14  1  0  0  0
 14 15  2  0  0  0
 15 16  1  0  0  0
 16 17  2  0  0  0
 16  1  1  0  0  0
  8  3  1  0  0  0
 15  9  1  0  0  0
 27 18  1  0  0  0
 27 22  1  0  0  0
 30 33  1  0  0  0
M  END
> <minimizedAffinity>
-7.00534

> <CNNscore>
0.3767013550

> <CNNaffinity>
6.5052809715

> <CNN_VS>
2.4505481720

> <CNNaffinity_variance>
0.1308458596

$$$$



 38 42  0  0  0  0  0  0  0  0999 V2000
   -7.1137   -1.3008  -22.2660 N   0  0  0  0  0  0  0  0  0  0  0  0
   -7.2431    0.1246  -22.7150 C   0  0  0  0  0  0  0  0  0  0  0  0
   -8.5824    0.6644  -23.1209 C   0  0  0  0  0  0  0  0  0  0  0  0
   -9.8491    1.3408  -23.5543 C   0  0  0  0  0  0  0  0  0  0  0  0
  -11.0311    1.0990  -23.6983 O   0  0  0  0  0  0  0  0  0  0  0  0
   -9.5174    2.7581  -23.9166 N   0  0  0  0  0  0  0  0  0  0  0  0
   -8.0455    2.9576  -23.7071 C   0  0  0  0  0  0  0  0  0  0  0  0
   -7.4677    1.6637  -23.2153 C   0  0  0  0  0  0  0  0  0  0  0  0
   -9.7924   -0.2211  -23.0779 C   0  0  0  0  0  0  0  0  0  0  0  0
  -11.1317    0.3187  -23.4838 C   0  0  0  0  0  0  0  0  0  0  0  0
  -12.3416   -0.5668  -23.4408 C   0  0  0  0  0  0  0  0  0  0  0  0
  -13.6810   -0.0269  -23.8467 Cl  0  0  0  0  0  0  0  0  0  0  0  0
  -12.2122   -1.9922  -22.9918 C   0  0  0  0  0  0  0  0  0  0  0  0
  -10.8730   -2.5320  -22.5858 C   0  0  0  0  0  0  0  0  0  0  0  0
   -9.6630   -1.6465  -22.6289 C   0  0  0  0  0  0  0  0  0  0  0  0
   -8.3237   -2.1863  -22.2229 C   0  0  0  0  0  0  0  0  0  0  0  0
   -8.1943   -3.6117  -21.7739 O   0  0  0  0  0  0  0  0  0  0  0  0
  -10.4871    3.7939  -24.4030 C   0  0  0  0  0  0  0  0  0  0  0  0
  -11.3979    4.4837  -23.4311 C   0  0  0  0  0  0  0  0  0  0  0  0
  -12.3677    5.5195  -23.9175 N   0  0  0  0  0  0  0  0  0  0  0  0
  -12.4267    5.8655  -25.3758 C   0  0  0  0  0  0  0  0  0  0  0  0
  -11.5160    5.1757  -26.3478 C   0  0  0  0  0  0  0  0  0  0  0  0
  -11.5750    5.5217  -27.8062 C   0  0  0  0  0  0  0  0  0  0  0  0
  -10.6642    4.8318  -28.7781 C   0  0  0  0  0  0  0  0  0  0  0  0
   -9.6944    3.7960  -28.2917 C   0  0  0  0  0  0  0  0  0  0  0  0
   -9.6354    3.4500  -26.8333 C   0  0  0  0  0  0  0  0  0  0  0  0
  -10.5462    4.1398  -25.8614 C   0  0  0  0  0  0  0  0  0  0  0  0
   -5.7744   -1.8407  -21.8600 C   0  0  0  0  0  0  0  0  0  0  0  0
   -5.5503   -5.7971  -22.0741 C   0  0  0  0  0  0  0  0  0  0  0  0
   -5.6869   -4.3610  -22.4848 N   0  0  0  0  0  0  0  0  0  0  0  0
   -5.6378   -3.2769  -21.4493 C   0  0  0  0  0  0  0  0  0  0  0  0
   -5.4521   -3.6289  -20.0030 O   0  0  0  0  0  0  0  0  0  0  0  0
   -5.8087   -4.1299  -23.4340 H   0  0  0  0  0  0  0  0  0  0  0  0
   -6.0279    1.4131  -22.8773 C   0  0  0  0  0  0  0  0  0  0  0  0
   -5.4399    1.9915  -21.6246 O   0  0  0  0  0  0  0  0  0  0  0  0
   -4.2110    1.3791  -21.0205 C   0  0  0  0  0  0  0  0  0  0  0  0
   -4.1566    1.1048  -19.5468 C   0  0  0  0  0  0  0  0  0  0  0  0
   -3.0366    1.0411  -21.8902 C   0  0  0  0  0  0  0  0  0  0  0  0
 29 30  1  0  0  0
 30 31  1  0  0  0
 31 32  2  0  0  0
 31 28  1  0  0  0
 28  1  1  0  0  0
  1  2  1  0  0  0
  3  2  1  0  0  0
  3  4  1  0  0  0
  4  5  2  0  0  0
  4  6  1  0  0  0
  6 18  1  0  0  0
 18 19  2  0  0  0
 19 20  1  0  0  0
 20 21  2  0  0  0
 21 22  1  0  0  0
 22 23  2  0  0  0
 23 24  1  0  0  0
 24 25  2  0  0  0
 25 26  1  0  0  0
 26 27  2  0  0  0
  6  7  1  0  0  0
  7  8  1  0  0  0
  8 34  1  0  0  0
 34 35  1  0  0  0
 35 36  1  0  0  0
 36 37  1  0  0  0
 36 38  1  0  0  0
  3  9  1  0  0  0
  9 10  2  0  0  0
 10 11  1  0  0  0
 11 12  1  0  0  0
 11 13  2  0  0  0
 13 14  1  0  0  0
 14 15  2  0  0  0
 15 16  1  0  0  0
 16 17  2  0  0  0
 16  1  1  0  0  0
  8  3  1  0  0  0
 15  9  1  0  0  0
 27 18  1  0  0  0
 27 22  1  0  0  0
 30 33  1  0  0  0
M  END
> <minimizedAffinity>
-7.18823

> <CNNscore>
0.3532032371

> <CNNaffinity>
6.4126434326

> <CNN_VS>
2.2649664879

> <CNNaffinity_variance>
0.0630169734

$$$$



 38 42  0  0  0  0  0  0  0  0999 V2000
  -11.5457    3.9178  -24.0753 N   0  0  0  0  0  0  0  0  0  0  0  0
  -10.1672    3.3361  -23.9686 C   0  0  0  0  0  0  0  0  0  0  0  0
   -9.9901    1.8734  -23.6873 C   0  0  0  0  0  0  0  0  0  0  0  0
   -9.6582    0.4368  -23.4115 C   0  0  0  0  0  0  0  0  0  0  0  0
  -10.2139   -0.6237  -23.2048 O   0  0  0  0  0  0  0  0  0  0  0  0
   -8.1644    0.3017  -23.3914 N   0  0  0  0  0  0  0  0  0  0  0  0
   -7.5730    1.6549  -23.6547 C   0  0  0  0  0  0  0  0  0  0  0  0
   -8.7014    2.6262  -23.8375 C   0  0  0  0  0  0  0  0  0  0  0  0
  -11.1915    0.9924  -23.5126 C   0  0  0  0  0  0  0  0  0  0  0  0
  -11.0143   -0.4703  -23.2313 C   0  0  0  0  0  0  0  0  0  0  0  0
  -12.2157   -1.3512  -23.0566 C   0  0  0  0  0  0  0  0  0  0  0  0
  -12.0386   -2.8140  -22.7752 Cl  0  0  0  0  0  0  0  0  0  0  0  0
  -13.5942   -0.7696  -23.1633 C   0  0  0  0  0  0  0  0  0  0  0  0
  -13.7713    0.6931  -23.4447 C   0  0  0  0  0  0  0  0  0  0  0  0
  -12.5700    1.5741  -23.6193 C   0  0  0  0  0  0  0  0  0  0  0  0
  -12.7470    3.0368  -23.9007 C   0  0  0  0  0  0  0  0  0  0  0  0
  -14.1255    3.6185  -24.0074 O   0  0  0  0  0  0  0  0  0  0  0  0
   -7.3968   -0.9642  -23.1503 C   0  0  0  0  0  0  0  0  0  0  0  0
   -7.1751   -1.9325  -24.2743 C   0  0  0  0  0  0  0  0  0  0  0  0
   -6.4075   -3.1985  -24.0332 N   0  0  0  0  0  0  0  0  0  0  0  0
   -5.8616   -3.4961  -22.6681 C   0  0  0  0  0  0  0  0  0  0  0  0
   -6.0834   -2.5278  -21.5442 C   0  0  0  0  0  0  0  0  0  0  0  0
   -5.5375   -2.8256  -20.1790 C   0  0  0  0  0  0  0  0  0  0  0  0
   -5.7592   -1.8572  -19.0551 C   0  0  0  0  0  0  0  0  0  0  0  0
   -6.5268   -0.5913  -19.2962 C   0  0  0  0  0  0  0  0  0  0  0  0
   -7.0727   -0.2936  -20.6613 C   0  0  0  0  0  0  0  0  0  0  0  0
   -6.8510   -1.2619  -21.7852 C   0  0  0  0  0  0  0  0  0  0  0  0
  -11.7228    5.3805  -24.3567 C   0  0  0  0  0  0  0  0  0  0  0  0
  -13.9789    6.3815  -27.4644 C   0  0  0  0  0  0  0  0  0  0  0  0
  -13.5769    5.9248  -26.0934 N   0  0  0  0  0  0  0  0  0  0  0  0
  -12.1248    5.8372  -25.7278 C   0  0  0  0  0  0  0  0  0  0  0  0
  -11.0746    6.2064  -26.7333 O   0  0  0  0  0  0  0  0  0  0  0  0
  -14.2661    5.6825  -25.4334 H   0  0  0  0  0  0  0  0  0  0  0  0
   -8.5649    4.0929  -24.1209 C   0  0  0  0  0  0  0  0  0  0  0  0
   -7.2169    4.6756  -24.4260 O   0  0  0  0  0  0  0  0  0  0  0  0
   -6.5305    5.5471  -23.4163 C   0  0  0  0  0  0  0  0  0  0  0  0
   -7.1176    5.7129  -22.0460 C   0  0  0  0  0  0  0  0  0  0  0  0
   -5.2570    6.2528  -23.7770 C   0  0  0  0  0  0  0  0  0  0  0  0
 29 30  1  0  0  0
 30 31  1  0  0  0
 31 32  2  0  0  0
 31 28  1  0  0  0
 28  1  1  0  0  0
  1  2  1  0  0  0
  3  2  1  0  0  0
  3  4  1  0  0  0
  4  5  2  0  0  0
  4  6  1  0  0  0
  6 18  1  0  0  0
 18 19  2  0  0  0
 19 20  1  0  0  0
 20 21  2  0  0  0
 21 22  1  0  0  0
 22 23  2  0  0  0
 23 24  1  0  0  0
 24 25  2  0  0  0
 25 26  1  0  0  0
 26 27  2  0  0  0
  6  7  1  0  0  0
  7  8  1  0  0  0
  8 34  1  0  0  0
 34 35  1  0  0  0
 35 36  1  0  0  0
 36 37  1  0  0  0
 36 38  1  0  0  0
  3  9  1  0  0  0
  9 10  2  0  0  0
 10 11  1  0  0  0
 11 12  1  0  0  0
 11 13  2  0  0  0
 13 14  1  0  0  0
 14 15  2  0  0  0
 15 16  1  0  0  0
 16 17  2  0  0  0
 16  1  1  0  0  0
  8  3  1  0  0  0
 15  9  1  0  0  0
 27 18  1  0  0  0
 27 22  1  0  0  0
 30 33  1  0  0  0
M  END
> <minimizedAffinity>
-7.71205

> <CNNscore>
0.3376482725

> <CNNaffinity>
6.5320138931

> <CNN_VS>
2.2055232525

> <CNNaffinity_variance>
0.0747492462

$$$$



 38 42  0  0  0  0  0  0  0  0999 V2000
   -7.6465   -2.9504  -22.4494 N   0  0  0  0  0  0  0  0  0  0  0  0
   -8.6073   -1.9652  -23.0463 C   0  0  0  0  0  0  0  0  0  0  0  0
   -8.2794   -0.5015  -23.0429 C   0  0  0  0  0  0  0  0  0  0  0  0
   -8.0891    0.9847  -23.1117 C   0  0  0  0  0  0  0  0  0  0  0  0
   -7.2807    1.8352  -22.7963 O   0  0  0  0  0  0  0  0  0  0  0  0
   -9.2912    1.5752  -23.7872 N   0  0  0  0  0  0  0  0  0  0  0  0
  -10.2245    0.4539  -24.1358 C   0  0  0  0  0  0  0  0  0  0  0  0
   -9.5992   -0.8296  -23.6758 C   0  0  0  0  0  0  0  0  0  0  0  0
   -6.9907   -0.0230  -22.4425 C   0  0  0  0  0  0  0  0  0  0  0  0
   -6.6629    1.4407  -22.4391 C   0  0  0  0  0  0  0  0  0  0  0  0
   -5.3742    1.9192  -21.8387 C   0  0  0  0  0  0  0  0  0  0  0  0
   -5.0463    3.3830  -21.8352 Cl  0  0  0  0  0  0  0  0  0  0  0  0
   -4.4135    0.9340  -21.2418 C   0  0  0  0  0  0  0  0  0  0  0  0
   -4.7414   -0.5297  -21.2452 C   0  0  0  0  0  0  0  0  0  0  0  0
   -6.0300   -1.0082  -21.8456 C   0  0  0  0  0  0  0  0  0  0  0  0
   -6.3579   -2.4719  -21.8490 C   0  0  0  0  0  0  0  0  0  0  0  0
   -5.3972   -3.4572  -21.2521 O   0  0  0  0  0  0  0  0  0  0  0  0
   -9.5198    3.0314  -24.0652 C   0  0  0  0  0  0  0  0  0  0  0  0
   -8.3773    3.9002  -24.5008 C   0  0  0  0  0  0  0  0  0  0  0  0
   -8.6060    5.3564  -24.7788 N   0  0  0  0  0  0  0  0  0  0  0  0
   -9.9771    5.9437  -24.6212 C   0  0  0  0  0  0  0  0  0  0  0  0
  -11.1197    5.0749  -24.1856 C   0  0  0  0  0  0  0  0  0  0  0  0
  -12.4909    5.6623  -24.0280 C   0  0  0  0  0  0  0  0  0  0  0  0
  -13.6334    4.7933  -23.5924 C   0  0  0  0  0  0  0  0  0  0  0  0
  -13.4048    3.3372  -23.3144 C   0  0  0  0  0  0  0  0  0  0  0  0
  -12.0336    2.7499  -23.4720 C   0  0  0  0  0  0  0  0  0  0  0  0
  -10.8910    3.6187  -23.9076 C   0  0  0  0  0  0  0  0  0  0  0  0
   -7.9744   -4.4142  -22.4528 C   0  0  0  0  0  0  0  0  0  0  0  0
   -6.0375   -6.7122  -25.0446 C   0  0  0  0  0  0  0  0  0  0  0  0
   -6.3315   -5.8806  -23.8313 N   0  0  0  0  0  0  0  0  0  0  0  0
   -7.6804   -5.2458  -23.6661 C   0  0  0  0  0  0  0  0  0  0  0  0
   -8.7354   -5.4424  -24.7142 O   0  0  0  0  0  0  0  0  0  0  0  0
   -5.6391   -5.7516  -23.1435 H   0  0  0  0  0  0  0  0  0  0  0  0
  -10.1899   -2.2005  -23.8229 C   0  0  0  0  0  0  0  0  0  0  0  0
  -11.1657   -2.7100  -22.8040 O   0  0  0  0  0  0  0  0  0  0  0  0
  -12.5401   -2.1153  -22.7187 C   0  0  0  0  0  0  0  0  0  0  0  0
  -12.8876   -0.9090  -23.5396 C   0  0  0  0  0  0  0  0  0  0  0  0
  -13.5670   -2.7270  -21.8124 C   0  0  0  0  0  0  0  0  0  0  0  0
 29 30  1  0  0  0
 30 31  1  0  0  0
 31 32  2  0  0  0
 31 28  1  0  0  0
 28  1  1  0  0  0
  1  2  1  0  0  0
  3  2  1  0  0  0
  3  4  1  0  0  0
  4  5  2  0  0  0
  4  6  1  0  0  0
  6 18  1  0  0  0
 18 19  2  0  0  0
 19 20  1  0  0  0
 20 21  2  0  0  0
 21 22  1  0  0  0
 22 23  2  0  0  0
 23 24  1  0  0  0
 24 25  2  0  0  0
 25 26  1  0  0  0
 26 27  2  0  0  0
  6  7  1  0  0  0
  7  8  1  0  0  0
  8 34  1  0  0  0
 34 35  1  0  0  0
 35 36  1  0  0  0
 36 37  1  0  0  0
 36 38  1  0  0  0
  3  9  1  0  0  0
  9 10  2  0  0  0
 10 11  1  0  0  0
 11 12  1  0  0  0
 11 13  2  0  0  0
 13 14  1  0  0  0
 14 15  2  0  0  0
 15 16  1  0  0  0
 16 17  2  0  0  0
 16  1  1  0  0  0
  8  3  1  0  0  0
 15  9  1  0  0  0
 27 18  1  0  0  0
 27 22  1  0  0  0
 30 33  1  0  0  0
M  END
> <minimizedAffinity>
-7.53105

> <CNNscore>
0.2939458787

> <CNNaffinity>
6.5243825912

> <CNN_VS>
1.9178153276

> <CNNaffinity_variance>
0.4334965348

$$$$
