


 39 44  0  0  0  0  0  0  0  0999 V2000
    9.8328    0.9236   23.3169 N   0  0  0  0  0  0  0  0  0  0  0  0
    8.4704    0.3946   23.6543 C   0  0  0  0  0  0  0  0  0  0  0  0
    8.3302   -0.7953   24.5567 C   0  0  0  0  0  0  0  0  0  0  0  0
    8.0348   -1.9707   25.4405 C   0  0  0  0  0  0  0  0  0  0  0  0
    8.6166   -2.8044   26.1061 O   0  0  0  0  0  0  0  0  0  0  0  0
    6.5460   -2.1437   25.4996 N   0  0  0  0  0  0  0  0  0  0  0  0
    5.9212   -1.0751   24.6524 C   0  0  0  0  0  0  0  0  0  0  0  0
    7.0239   -0.2418   24.0697 C   0  0  0  0  0  0  0  0  0  0  0  0
    6.8507    0.9380   23.1596 C   0  0  0  0  0  0  0  0  0  0  0  0
    9.5525   -1.4563   25.1218 C   0  0  0  0  0  0  0  0  0  0  0  0
    9.4123   -2.6462   26.0242 C   0  0  0  0  0  0  0  0  0  0  0  0
   10.6346   -3.3070   26.5892 C   0  0  0  0  0  0  0  0  0  0  0  0
   10.4945   -4.4970   27.4917 Cl  0  0  0  0  0  0  0  0  0  0  0  0
   11.9971   -2.7780   26.2518 C   0  0  0  0  0  0  0  0  0  0  0  0
   12.1372   -1.5881   25.3493 C   0  0  0  0  0  0  0  0  0  0  0  0
   10.9150   -0.9272   24.7843 C   0  0  0  0  0  0  0  0  0  0  0  0
   11.0551    0.2627   23.8818 C   0  0  0  0  0  0  0  0  0  0  0  0
   12.4176    0.7918   23.5444 O   0  0  0  0  0  0  0  0  0  0  0  0
    5.8110   -3.1998   26.2706 C   0  0  0  0  0  0  0  0  0  0  0  0
    5.4127   -4.4796   25.5971 C   0  0  0  0  0  0  0  0  0  0  0  0
    4.6777   -5.5357   26.3681 N   0  0  0  0  0  0  0  0  0  0  0  0
    4.3410   -5.3120   27.8126 C   0  0  0  0  0  0  0  0  0  0  0  0
    4.7393   -4.0322   28.4861 C   0  0  0  0  0  0  0  0  0  0  0  0
    4.4025   -3.8085   29.9307 C   0  0  0  0  0  0  0  0  0  0  0  0
    4.8009   -2.5287   30.6041 C   0  0  0  0  0  0  0  0  0  0  0  0
    5.5358   -1.4726   29.8331 C   0  0  0  0  0  0  0  0  0  0  0  0
    5.8726   -1.6963   28.3886 C   0  0  0  0  0  0  0  0  0  0  0  0
    5.4743   -2.9761   27.7151 C   0  0  0  0  0  0  0  0  0  0  0  0
    9.9730    2.1136   22.4144 C   0  0  0  0  0  0  0  0  0  0  0  0
   10.9136    3.2240   22.7780 C   0  0  0  0  0  0  0  0  0  0  0  0
   11.7499    8.3352   22.3593 C   0  0  0  0  0  0  0  0  0  0  0  0
   10.8286    7.1898   22.6579 C   0  0  0  0  0  0  0  0  0  0  0  0
   11.3318    5.7796   22.5686 C   0  0  0  0  0  0  0  0  0  0  0  0
   10.4104    4.6342   22.8672 N   0  0  0  0  0  0  0  0  0  0  0  0
    8.9859    4.8990   23.2550 C   0  0  0  0  0  0  0  0  0  0  0  0
    8.4826    6.3093   23.3443 C   0  0  0  0  0  0  0  0  0  0  0  0
    7.0580    6.5741   23.7321 C   0  0  0  0  0  0  0  0  0  0  0  0
    9.4039    7.4547   23.0457 O   0  0  0  0  0  0  0  0  0  0  0  0
   11.3791    4.4541   22.6035 H   0  0  0  0  0  0  0  0  0  0  0  0
 32 31  1  0  0  0
 32 33  1  0  0  0
 33 34  1  0  0  0
 34 30  1  0  0  0
 30 29  1  0  0  0
 29  1  1  0  0  0
  1  2  1  0  0  0
  3  2  1  0  0  0
  3  4  1  0  0  0
  4  5  2  0  0  0
  4  6  1  0  0  0
  6 19  1  0  0  0
 19 20  2  0  0  0
 20 21  1  0  0  0
 21 22  2  0  0  0
 22 23  1  0  0  0
 23 24  2  0  0  0
 24 25  1  0  0  0
 25 26  2  0  0  0
 26 27  1  0  0  0
 27 28  2  0  0  0
  6  7  1  0  0  0
  7  8  1  0  0  0
  8  9  1  0  0  0
  3 10  1  0  0  0
 10 11  2  0  0  0
 11 12  1  0  0  0
 12 13  1  0  0  0
 12 14  2  0  0  0
 14 15  1  0  0  0
 15 16  2  0  0  0
 16 17  1  0  0  0
 17 18  2  0  0  0
 34 35  1  0  0  0
 35 36  1  0  0  0
 36 37  1  0  0  0
 36 38  1  0  0  0
 38 32  1  0  0  0
 17  1  1  0  0  0
  8  3  1  0  0  0
 16 10  1  0  0  0
 28 19  1  0  0  0
 28 23  1  0  0  0
 34 39  1  0  0  0
M  CHG 1  34   1
M  END
> <minimizedAffinity>
-8.56821

> <CNNscore>
0.3068303168

> <CNNaffinity>
6.5091104507

> <CNN_VS>
1.9971923828

> <CNNaffinity_variance>
0.1627715677

$$$$



 39 44  0  0  0  0  0  0  0  0999 V2000
    6.9301   -1.0337   24.1232 N   0  0  0  0  0  0  0  0  0  0  0  0
    7.0229    0.4516   23.9355 C   0  0  0  0  0  0  0  0  0  0  0  0
    8.3376    1.0824   23.5840 C   0  0  0  0  0  0  0  0  0  0  0  0
    9.5770    1.8510   23.2330 C   0  0  0  0  0  0  0  0  0  0  0  0
   10.7552    1.6628   23.0033 O   0  0  0  0  0  0  0  0  0  0  0  0
    9.2127    3.3036   23.1465 N   0  0  0  0  0  0  0  0  0  0  0  0
    7.7482    3.4327   23.4439 C   0  0  0  0  0  0  0  0  0  0  0  0
    7.2074    2.0599   23.7144 C   0  0  0  0  0  0  0  0  0  0  0  0
    5.7858    1.7238   24.0553 C   0  0  0  0  0  0  0  0  0  0  0  0
    9.5596    0.2280   23.4202 C   0  0  0  0  0  0  0  0  0  0  0  0
   10.8743    0.8588   23.0688 C   0  0  0  0  0  0  0  0  0  0  0  0
   12.0962    0.0043   22.9050 C   0  0  0  0  0  0  0  0  0  0  0  0
   13.4109    0.6352   22.5535 Cl  0  0  0  0  0  0  0  0  0  0  0  0
   12.0033   -1.4810   23.0927 C   0  0  0  0  0  0  0  0  0  0  0  0
   10.6886   -2.1118   23.4441 C   0  0  0  0  0  0  0  0  0  0  0  0
    9.4668   -1.2574   23.6079 C   0  0  0  0  0  0  0  0  0  0  0  0
    8.1520   -1.8882   23.9594 C   0  0  0  0  0  0  0  0  0  0  0  0
    8.0592   -3.3735   24.1471 O   0  0  0  0  0  0  0  0  0  0  0  0
   10.1487    4.4293   22.8198 C   0  0  0  0  0  0  0  0  0  0  0  0
   11.4672    4.1423   22.1647 C   0  0  0  0  0  0  0  0  0  0  0  0
   12.4031    5.2681   21.8380 N   0  0  0  0  0  0  0  0  0  0  0  0
   12.0205    6.6808   22.1664 C   0  0  0  0  0  0  0  0  0  0  0  0
   10.7020    6.9677   22.8215 C   0  0  0  0  0  0  0  0  0  0  0  0
   10.3194    8.3805   23.1499 C   0  0  0  0  0  0  0  0  0  0  0  0
    9.0009    8.6674   23.8050 C   0  0  0  0  0  0  0  0  0  0  0  0
    8.0650    7.5417   24.1317 C   0  0  0  0  0  0  0  0  0  0  0  0
    8.4475    6.1290   23.8033 C   0  0  0  0  0  0  0  0  0  0  0  0
    9.7661    5.8420   23.1482 C   0  0  0  0  0  0  0  0  0  0  0  0
    5.6153   -1.6646   24.4746 C   0  0  0  0  0  0  0  0  0  0  0  0
    5.5642   -2.7886   25.4666 C   0  0  0  0  0  0  0  0  0  0  0  0
    5.4370   -6.2652   21.6070 C   0  0  0  0  0  0  0  0  0  0  0  0
    5.2987   -5.9359   23.0638 C   0  0  0  0  0  0  0  0  0  0  0  0
    5.5006   -4.5269   23.5368 C   0  0  0  0  0  0  0  0  0  0  0  0
    5.3623   -4.1977   24.9936 N   0  0  0  0  0  0  0  0  0  0  0  0
    5.0221   -5.2775   25.9776 C   0  0  0  0  0  0  0  0  0  0  0  0
    4.8202   -6.6867   25.5047 C   0  0  0  0  0  0  0  0  0  0  0  0
    4.4800   -7.7665   26.4886 C   0  0  0  0  0  0  0  0  0  0  0  0
    4.9585   -7.0159   24.0478 O   0  0  0  0  0  0  0  0  0  0  0  0
    5.5936   -3.4633   24.3246 H   0  0  0  0  0  0  0  0  0  0  0  0
 32 31  1  0  0  0
 32 33  1  0  0  0
 33 34  1  0  0  0
 34 30  1  0  0  0
 30 29  1  0  0  0
 29  1  1  0  0  0
  1  2  1  0  0  0
  3  2  1  0  0  0
  3  4  1  0  0  0
  4  5  2  0  0  0
  4  6  1  0  0  0
  6 19  1  0  0  0
 19 20  2  0  0  0
 20 21  1  0  0  0
 21 22  2  0  0  0
 22 23  1  0  0  0
 23 24  2  0  0  0
 24 25  1  0  0  0
 25 26  2  0  0  0
 26 27  1  0  0  0
 27 28  2  0  0  0
  6  7  1  0  0  0
  7  8  1  0  0  0
  8  9  1  0  0  0
  3 10  1  0  0  0
 10 11  2  0  0  0
 11 12  1  0  0  0
 12 13  1  0  0  0
 12 14  2  0  0  0
 14 15  1  0  0  0
 15 16  2  0  0  0
 16 17  1  0  0  0
 17 18  2  0  0  0
 34 35  1  0  0  0
 35 36  1  0  0  0
 36 37  1  0  0  0
 36 38  1  0  0  0
 38 32  1  0  0  0
 17  1  1  0  0  0
  8  3  1  0  0  0
 16 10  1  0  0  0
 28 19  1  0  0  0
 28 23  1  0  0  0
 34 39  1  0  0  0
M  CHG 1  34   1
M  END
> <minimizedAffinity>
-7.98224

> <CNNscore>
0.2830572426

> <CNNaffinity>
6.5843276978

> <CNN_VS>
1.8637416363

> <CNNaffinity_variance>
0.0534338057

$$$$



 39 44  0  0  0  0  0  0  0  0999 V2000
   10.4978    0.6427   23.4698 N   0  0  0  0  0  0  0  0  0  0  0  0
    9.1138    0.3181   23.9483 C   0  0  0  0  0  0  0  0  0  0  0  0
    8.8931   -0.8399   24.8757 C   0  0  0  0  0  0  0  0  0  0  0  0
    8.5200   -1.9609   25.7999 C   0  0  0  0  0  0  0  0  0  0  0  0
    9.0380   -2.8717   26.4150 O   0  0  0  0  0  0  0  0  0  0  0  0
    7.0354   -1.9143   26.0094 N   0  0  0  0  0  0  0  0  0  0  0  0
    6.4910   -0.7645   25.2147 C   0  0  0  0  0  0  0  0  0  0  0  0
    7.6392   -0.1005   24.5141 C   0  0  0  0  0  0  0  0  0  0  0  0
    7.5491    1.0934   23.6104 C   0  0  0  0  0  0  0  0  0  0  0  0
   10.0566   -1.6734   25.3247 C   0  0  0  0  0  0  0  0  0  0  0  0
    9.8360   -2.8315   26.2522 C   0  0  0  0  0  0  0  0  0  0  0  0
   10.9995   -3.6650   26.7012 C   0  0  0  0  0  0  0  0  0  0  0  0
   10.7789   -4.8231   27.6287 Cl  0  0  0  0  0  0  0  0  0  0  0  0
   12.3836   -3.3404   26.2227 C   0  0  0  0  0  0  0  0  0  0  0  0
   12.6042   -2.1824   25.2952 C   0  0  0  0  0  0  0  0  0  0  0  0
   11.4407   -1.3489   24.8463 C   0  0  0  0  0  0  0  0  0  0  0  0
   11.6613   -0.1908   23.9187 C   0  0  0  0  0  0  0  0  0  0  0  0
   13.0454    0.1338   23.4403 O   0  0  0  0  0  0  0  0  0  0  0  0
    6.2357   -2.8527   26.8636 C   0  0  0  0  0  0  0  0  0  0  0  0
    6.1275   -2.6149   28.3407 C   0  0  0  0  0  0  0  0  0  0  0  0
    5.3278   -3.5534   29.1950 N   0  0  0  0  0  0  0  0  0  0  0  0
    4.6362   -4.7296   28.5721 C   0  0  0  0  0  0  0  0  0  0  0  0
    4.7443   -4.9675   27.0950 C   0  0  0  0  0  0  0  0  0  0  0  0
    4.0526   -6.1439   26.4721 C   0  0  0  0  0  0  0  0  0  0  0  0
    4.1608   -6.3816   24.9950 C   0  0  0  0  0  0  0  0  0  0  0  0
    4.9606   -5.4432   24.1408 C   0  0  0  0  0  0  0  0  0  0  0  0
    5.6522   -4.2669   24.7637 C   0  0  0  0  0  0  0  0  0  0  0  0
    5.5440   -4.0290   26.2408 C   0  0  0  0  0  0  0  0  0  0  0  0
   10.7184    1.8008   22.5423 C   0  0  0  0  0  0  0  0  0  0  0  0
   11.4649    3.0116   23.0186 C   0  0  0  0  0  0  0  0  0  0  0  0
   11.8159    8.0976   22.0141 C   0  0  0  0  0  0  0  0  0  0  0  0
   11.0022    6.9095   22.4343 C   0  0  0  0  0  0  0  0  0  0  0  0
   11.6404    5.5546   22.5164 C   0  0  0  0  0  0  0  0  0  0  0  0
   10.8267    4.3665   22.9365 N   0  0  0  0  0  0  0  0  0  0  0  0
    9.3749    4.5334   23.2746 C   0  0  0  0  0  0  0  0  0  0  0  0
    8.7367    5.8884   23.1925 C   0  0  0  0  0  0  0  0  0  0  0  0
    7.2848    6.0554   23.5305 C   0  0  0  0  0  0  0  0  0  0  0  0
    9.5503    7.0765   22.7723 O   0  0  0  0  0  0  0  0  0  0  0  0
   11.8140    4.2530   22.7067 H   0  0  0  0  0  0  0  0  0  0  0  0
 32 31  1  0  0  0
 32 33  1  0  0  0
 33 34  1  0  0  0
 34 30  1  0  0  0
 30 29  1  0  0  0
 29  1  1  0  0  0
  1  2  1  0  0  0
  3  2  1  0  0  0
  3  4  1  0  0  0
  4  5  2  0  0  0
  4  6  1  0  0  0
  6 19  1  0  0  0
 19 20  2  0  0  0
 20 21  1  0  0  0
 21 22  2  0  0  0
 22 23  1  0  0  0
 23 24  2  0  0  0
 24 25  1  0  0  0
 25 26  2  0  0  0
 26 27  1  0  0  0
 27 28  2  0  0  0
  6  7  1  0  0  0
  7  8  1  0  0  0
  8  9  1  0  0  0
  3 10  1  0  0  0
 10 11  2  0  0  0
 11 12  1  0  0  0
 12 13  1  0  0  0
 12 14  2  0  0  0
 14 15  1  0  0  0
 15 16  2  0  0  0
 16 17  1  0  0  0
 17 18  2  0  0  0
 34 35  1  0  0  0
 35 36  1  0  0  0
 36 37  1  0  0  0
 36 38  1  0  0  0
 38 32  1  0  0  0
 17  1  1  0  0  0
  8  3  1  0  0  0
 16 10  1  0  0  0
 28 19  1  0  0  0
 28 23  1  0  0  0
 34 39  1  0  0  0
M  CHG 1  34   1
M  END
> <minimizedAffinity>
-9.01698

> <CNNscore>
0.2741495967

> <CNNaffinity>
6.5154557228

> <CNN_VS>
1.7862095833

> <CNNaffinity_variance>
0.2442934066

$$$$



 39 44  0  0  0  0  0  0  0  0999 V2000
   10.0064    0.7414   23.3270 N   0  0  0  0  0  0  0  0  0  0  0  0
    8.6316    0.2003   23.5859 C   0  0  0  0  0  0  0  0  0  0  0  0
    8.4485   -0.9789   24.4947 C   0  0  0  0  0  0  0  0  0  0  0  0
    8.1116   -2.1458   25.3749 C   0  0  0  0  0  0  0  0  0  0  0  0
    8.6598   -2.9631   26.0875 O   0  0  0  0  0  0  0  0  0  0  0  0
    6.6240   -2.3362   25.3431 N   0  0  0  0  0  0  0  0  0  0  0  0
    6.0416   -1.2870   24.4431 C   0  0  0  0  0  0  0  0  0  0  0  0
    7.1692   -0.4481   23.9188 C   0  0  0  0  0  0  0  0  0  0  0  0
    7.0401    0.7170   22.9829 C   0  0  0  0  0  0  0  0  0  0  0  0
    9.6404   -1.6171   25.1446 C   0  0  0  0  0  0  0  0  0  0  0  0
    9.4573   -2.7963   26.0534 C   0  0  0  0  0  0  0  0  0  0  0  0
   10.6491   -3.4344   26.7033 C   0  0  0  0  0  0  0  0  0  0  0  0
   10.4661   -4.6136   27.6122 Cl  0  0  0  0  0  0  0  0  0  0  0  0
   12.0239   -2.8933   26.4444 C   0  0  0  0  0  0  0  0  0  0  0  0
   12.2070   -1.7141   25.5356 C   0  0  0  0  0  0  0  0  0  0  0  0
   11.0152   -1.0760   24.8857 C   0  0  0  0  0  0  0  0  0  0  0  0
   11.1982    0.1033   23.9769 C   0  0  0  0  0  0  0  0  0  0  0  0
   12.5730    0.6444   23.7180 O   0  0  0  0  0  0  0  0  0  0  0  0
    5.8541   -3.3907   26.0815 C   0  0  0  0  0  0  0  0  0  0  0  0
    5.4510   -4.6541   25.3805 C   0  0  0  0  0  0  0  0  0  0  0  0
    4.6811   -5.7086   26.1190 N   0  0  0  0  0  0  0  0  0  0  0  0
    4.3143   -5.4997   27.5584 C   0  0  0  0  0  0  0  0  0  0  0  0
    4.7175   -4.2363   28.2593 C   0  0  0  0  0  0  0  0  0  0  0  0
    4.3507   -4.0274   29.6988 C   0  0  0  0  0  0  0  0  0  0  0  0
    4.7539   -2.7640   30.3996 C   0  0  0  0  0  0  0  0  0  0  0  0
    5.5238   -1.7095   29.6612 C   0  0  0  0  0  0  0  0  0  0  0  0
    5.8906   -1.9184   28.2218 C   0  0  0  0  0  0  0  0  0  0  0  0
    5.4874   -3.1818   27.5209 C   0  0  0  0  0  0  0  0  0  0  0  0
   10.1894    1.9206   22.4182 C   0  0  0  0  0  0  0  0  0  0  0  0
   11.0774    3.0562   22.8326 C   0  0  0  0  0  0  0  0  0  0  0  0
    7.1607    6.3582   23.7019 C   0  0  0  0  0  0  0  0  0  0  0  0
    8.5824    6.1077   23.2945 C   0  0  0  0  0  0  0  0  0  0  0  0
    9.1191    4.7072   23.2673 C   0  0  0  0  0  0  0  0  0  0  0  0
   10.5408    4.4566   22.8598 N   0  0  0  0  0  0  0  0  0  0  0  0
   11.4258    5.6065   22.4796 C   0  0  0  0  0  0  0  0  0  0  0  0
   10.8891    7.0070   22.5068 C   0  0  0  0  0  0  0  0  0  0  0  0
   11.7742    8.1568   22.1266 C   0  0  0  0  0  0  0  0  0  0  0  0
    9.4674    7.2576   22.9142 O   0  0  0  0  0  0  0  0  0  0  0  0
    9.9390    3.6747   23.1184 H   0  0  0  0  0  0  0  0  0  0  0  0
 32 31  1  0  0  0
 32 33  1  0  0  0
 33 34  1  0  0  0
 34 30  1  0  0  0
 30 29  1  0  0  0
 29  1  1  0  0  0
  1  2  1  0  0  0
  3  2  1  0  0  0
  3  4  1  0  0  0
  4  5  2  0  0  0
  4  6  1  0  0  0
  6 19  1  0  0  0
 19 20  2  0  0  0
 20 21  1  0  0  0
 21 22  2  0  0  0
 22 23  1  0  0  0
 23 24  2  0  0  0
 24 25  1  0  0  0
 25 26  2  0  0  0
 26 27  1  0  0  0
 27 28  2  0  0  0
  6  7  1  0  0  0
  7  8  1  0  0  0
  8  9  1  0  0  0
  3 10  1  0  0  0
 10 11  2  0  0  0
 11 12  1  0  0  0
 12 13  1  0  0  0
 12 14  2  0  0  0
 14 15  1  0  0  0
 15 16  2  0  0  0
 16 17  1  0  0  0
 17 18  2  0  0  0
 34 35  1  0  0  0
 35 36  1  0  0  0
 36 37  1  0  0  0
 36 38  1  0  0  0
 38 32  1  0  0  0
 17  1  1  0  0  0
  8  3  1  0  0  0
 16 10  1  0  0  0
 28 19  1  0  0  0
 28 23  1  0  0  0
 34 39  1  0  0  0
M  CHG 1  34   1
M  END
> <minimizedAffinity>
-8.65586

> <CNNscore>
0.2649971247

> <CNNaffinity>
6.4623594284

> <CNN_VS>
1.7125066519

> <CNNaffinity_variance>
0.1811882108

$$$$



 39 44  0  0  0  0  0  0  0  0999 V2000
   10.4909    0.6337   23.4035 N   0  0  0  0  0  0  0  0  0  0  0  0
    9.1072    0.3059   23.8809 C   0  0  0  0  0  0  0  0  0  0  0  0
    8.8912   -0.8394   24.8250 C   0  0  0  0  0  0  0  0  0  0  0  0
    8.5223   -1.9490   25.7646 C   0  0  0  0  0  0  0  0  0  0  0  0
    9.0445   -2.8463   26.3958 O   0  0  0  0  0  0  0  0  0  0  0  0
    7.0365   -1.9105   25.9669 N   0  0  0  0  0  0  0  0  0  0  0  0
    6.4871   -0.7771   25.1523 C   0  0  0  0  0  0  0  0  0  0  0  0
    7.6333   -0.1152   24.4466 C   0  0  0  0  0  0  0  0  0  0  0  0
    7.5383    1.0640   23.5244 C   0  0  0  0  0  0  0  0  0  0  0  0
   10.0589   -1.6572   25.2917 C   0  0  0  0  0  0  0  0  0  0  0  0
    9.8429   -2.8026   26.2358 C   0  0  0  0  0  0  0  0  0  0  0  0
   11.0106   -3.6202   26.7026 C   0  0  0  0  0  0  0  0  0  0  0  0
   10.7946   -4.7657   27.6467 Cl  0  0  0  0  0  0  0  0  0  0  0  0
   12.3943   -3.2925   26.2251 C   0  0  0  0  0  0  0  0  0  0  0  0
   12.6103   -2.1471   25.2810 C   0  0  0  0  0  0  0  0  0  0  0  0
   11.4426   -1.3295   24.8143 C   0  0  0  0  0  0  0  0  0  0  0  0
   11.6586   -0.1840   23.8702 C   0  0  0  0  0  0  0  0  0  0  0  0
   13.0423    0.1437   23.3928 O   0  0  0  0  0  0  0  0  0  0  0  0
    6.2401   -2.8418   26.8319 C   0  0  0  0  0  0  0  0  0  0  0  0
    6.1185   -2.5788   28.3037 C   0  0  0  0  0  0  0  0  0  0  0  0
    5.3221   -3.5102   29.1687 N   0  0  0  0  0  0  0  0  0  0  0  0
    4.6472   -4.7045   28.5620 C   0  0  0  0  0  0  0  0  0  0  0  0
    4.7687   -4.9674   27.0902 C   0  0  0  0  0  0  0  0  0  0  0  0
    4.0938   -6.1618   26.4834 C   0  0  0  0  0  0  0  0  0  0  0  0
    4.2154   -6.4246   25.0116 C   0  0  0  0  0  0  0  0  0  0  0  0
    5.0119   -5.4933   24.1466 C   0  0  0  0  0  0  0  0  0  0  0  0
    5.6868   -4.2990   24.7534 C   0  0  0  0  0  0  0  0  0  0  0  0
    5.5652   -4.0361   26.2252 C   0  0  0  0  0  0  0  0  0  0  0  0
   10.7069    1.7791   22.4593 C   0  0  0  0  0  0  0  0  0  0  0  0
   11.4745    2.9869   22.9087 C   0  0  0  0  0  0  0  0  0  0  0  0
    7.3040    6.0146   23.5716 C   0  0  0  0  0  0  0  0  0  0  0  0
    8.7478    5.8560   23.1970 C   0  0  0  0  0  0  0  0  0  0  0  0
    9.3893    4.5008   23.2401 C   0  0  0  0  0  0  0  0  0  0  0  0
   10.8330    4.3421   22.8655 N   0  0  0  0  0  0  0  0  0  0  0  0
   11.6353    5.5386   22.4477 C   0  0  0  0  0  0  0  0  0  0  0  0
   10.9938    6.8939   22.4045 C   0  0  0  0  0  0  0  0  0  0  0  0
   11.7961    8.0905   21.9867 C   0  0  0  0  0  0  0  0  0  0  0  0
    9.5501    7.0526   22.7791 O   0  0  0  0  0  0  0  0  0  0  0  0
   10.2875    3.5285   23.1496 H   0  0  0  0  0  0  0  0  0  0  0  0
 32 31  1  0  0  0
 32 33  1  0  0  0
 33 34  1  0  0  0
 34 30  1  0  0  0
 30 29  1  0  0  0
 29  1  1  0  0  0
  1  2  1  0  0  0
  3  2  1  0  0  0
  3  4  1  0  0  0
  4  5  2  0  0  0
  4  6  1  0  0  0
  6 19  1  0  0  0
 19 20  2  0  0  0
 20 21  1  0  0  0
 21 22  2  0  0  0
 22 23  1  0  0  0
 23 24  2  0  0  0
 24 25  1  0  0  0
 25 26  2  0  0  0
 26 27  1  0  0  0
 27 28  2  0  0  0
  6  7  1  0  0  0
  7  8  1  0  0  0
  8  9  1  0  0  0
  3 10  1  0  0  0
 10 11  2  0  0  0
 11 12  1  0  0  0
 12 13  1  0  0  0
 12 14  2  0  0  0
 14 15  1  0  0  0
 15 16  2  0  0  0
 16 17  1  0  0  0
 17 18  2  0  0  0
 34 35  1  0  0  0
 35 36  1  0  0  0
 36 37  1  0  0  0
 36 38  1  0  0  0
 38 32  1  0  0  0
 17  1  1  0  0  0
  8  3  1  0  0  0
 16 10  1  0  0  0
 28 19  1  0  0  0
 28 23  1  0  0  0
 34 39  1  0  0  0
M  CHG 1  34   1
M  END
> <minimizedAffinity>
-8.98872

> <CNNscore>
0.2648865581

> <CNNaffinity>
6.5172052383

> <CNN_VS>
1.7263200283

> <CNNaffinity_variance>
0.2308350056

$$$$



 39 44  0  0  0  0  0  0  0  0999 V2000
    9.7371    0.6492   22.8598 N   0  0  0  0  0  0  0  0  0  0  0  0
    8.5965   -0.3138   22.7127 C   0  0  0  0  0  0  0  0  0  0  0  0
    8.6158   -1.6180   23.4535 C   0  0  0  0  0  0  0  0  0  0  0  0
    8.4960   -2.9525   24.1277 C   0  0  0  0  0  0  0  0  0  0  0  0
    9.1106   -3.6658   24.8959 O   0  0  0  0  0  0  0  0  0  0  0  0
    7.2009   -3.5749   23.6973 N   0  0  0  0  0  0  0  0  0  0  0  0
    6.5201   -2.6249   22.7570 C   0  0  0  0  0  0  0  0  0  0  0  0
    7.3946   -1.4155   22.6063 C   0  0  0  0  0  0  0  0  0  0  0  0
    7.0996   -0.2145   21.7575 C   0  0  0  0  0  0  0  0  0  0  0  0
    9.7757   -1.9592   24.3414 C   0  0  0  0  0  0  0  0  0  0  0  0
    9.7949   -3.2633   25.0822 C   0  0  0  0  0  0  0  0  0  0  0  0
   10.9547   -3.6045   25.9700 C   0  0  0  0  0  0  0  0  0  0  0  0
   10.9740   -4.9087   26.7108 Cl  0  0  0  0  0  0  0  0  0  0  0  0
   12.0954   -2.6415   26.1171 C   0  0  0  0  0  0  0  0  0  0  0  0
   12.0761   -1.3374   25.3763 C   0  0  0  0  0  0  0  0  0  0  0  0
   10.9163   -0.9962   24.4885 C   0  0  0  0  0  0  0  0  0  0  0  0
   10.8970    0.3080   23.7476 C   0  0  0  0  0  0  0  0  0  0  0  0
   12.0376    1.2710   23.8947 O   0  0  0  0  0  0  0  0  0  0  0  0
    6.6783   -4.9123   24.1310 C   0  0  0  0  0  0  0  0  0  0  0  0
    7.2906   -6.1691   23.5874 C   0  0  0  0  0  0  0  0  0  0  0  0
    6.7680   -7.5065   24.0211 N   0  0  0  0  0  0  0  0  0  0  0  0
    5.6331   -7.5872   24.9985 C   0  0  0  0  0  0  0  0  0  0  0  0
    5.0207   -6.3304   25.5422 C   0  0  0  0  0  0  0  0  0  0  0  0
    3.8857   -6.4111   26.5197 C   0  0  0  0  0  0  0  0  0  0  0  0
    3.2734   -5.1543   27.0633 C   0  0  0  0  0  0  0  0  0  0  0  0
    3.7960   -3.8168   26.6295 C   0  0  0  0  0  0  0  0  0  0  0  0
    4.9310   -3.7362   25.6521 C   0  0  0  0  0  0  0  0  0  0  0  0
    5.5433   -4.9930   25.1085 C   0  0  0  0  0  0  0  0  0  0  0  0
    9.7179    1.9534   22.1190 C   0  0  0  0  0  0  0  0  0  0  0  0
   10.8038    2.9623   22.3484 C   0  0  0  0  0  0  0  0  0  0  0  0
   12.0715    7.9877   21.9765 C   0  0  0  0  0  0  0  0  0  0  0  0
   11.0890    6.9206   22.3587 C   0  0  0  0  0  0  0  0  0  0  0  0
   11.4377    5.4750   22.1624 C   0  0  0  0  0  0  0  0  0  0  0  0
   10.4552    4.4079   22.5447 N   0  0  0  0  0  0  0  0  0  0  0  0
    9.1241    4.7865   23.1232 C   0  0  0  0  0  0  0  0  0  0  0  0
    8.7754    6.2322   23.3195 C   0  0  0  0  0  0  0  0  0  0  0  0
    7.4442    6.6108   23.8981 C   0  0  0  0  0  0  0  0  0  0  0  0
    9.7578    7.2993   22.9373 O   0  0  0  0  0  0  0  0  0  0  0  0
   11.3604    4.1505   22.1513 H   0  0  0  0  0  0  0  0  0  0  0  0
 32 31  1  0  0  0
 32 33  1  0  0  0
 33 34  1  0  0  0
 34 30  1  0  0  0
 30 29  1  0  0  0
 29  1  1  0  0  0
  1  2  1  0  0  0
  3  2  1  0  0  0
  3  4  1  0  0  0
  4  5  2  0  0  0
  4  6  1  0  0  0
  6 19  1  0  0  0
 19 20  2  0  0  0
 20 21  1  0  0  0
 21 22  2  0  0  0
 22 23  1  0  0  0
 23 24  2  0  0  0
 24 25  1  0  0  0
 25 26  2  0  0  0
 26 27  1  0  0  0
 27 28  2  0  0  0
  6  7  1  0  0  0
  7  8  1  0  0  0
  8  9  1  0  0  0
  3 10  1  0  0  0
 10 11  2  0  0  0
 11 12  1  0  0  0
 12 13  1  0  0  0
 12 14  2  0  0  0
 14 15  1  0  0  0
 15 16  2  0  0  0
 16 17  1  0  0  0
 17 18  2  0  0  0
 34 35  1  0  0  0
 35 36  1  0  0  0
 36 37  1  0  0  0
 36 38  1  0  0  0
 38 32  1  0  0  0
 17  1  1  0  0  0
  8  3  1  0  0  0
 16 10  1  0  0  0
 28 19  1  0  0  0
 28 23  1  0  0  0
 34 39  1  0  0  0
M  CHG 1  34   1
M  END
> <minimizedAffinity>
-9.47557

> <CNNscore>
0.2225638479

> <CNNaffinity>
6.5012145042

> <CNN_VS>
1.4469352961

> <CNNaffinity_variance>
0.1723154485

$$$$



 39 44  0  0  0  0  0  0  0  0999 V2000
    6.7880   -3.5854   22.9667 N   0  0  0  0  0  0  0  0  0  0  0  0
    7.0527   -2.2022   22.4502 C   0  0  0  0  0  0  0  0  0  0  0  0
    8.2454   -1.4348   22.9384 C   0  0  0  0  0  0  0  0  0  0  0  0
    9.3915   -0.5509   23.3322 C   0  0  0  0  0  0  0  0  0  0  0  0
   10.3660   -0.5582   24.0579 O   0  0  0  0  0  0  0  0  0  0  0  0
    9.2649    0.7375   22.5746 N   0  0  0  0  0  0  0  0  0  0  0  0
    8.0405    0.6499   21.7125 C   0  0  0  0  0  0  0  0  0  0  0  0
    7.4104   -0.6926   21.9374 C   0  0  0  0  0  0  0  0  0  0  0  0
    6.1641   -1.2033   21.2772 C   0  0  0  0  0  0  0  0  0  0  0  0
    9.1735   -2.0505   23.9433 C   0  0  0  0  0  0  0  0  0  0  0  0
   10.3662   -1.2830   24.4315 C   0  0  0  0  0  0  0  0  0  0  0  0
   11.2942   -1.8987   25.4363 C   0  0  0  0  0  0  0  0  0  0  0  0
   12.4870   -1.1313   25.9246 Cl  0  0  0  0  0  0  0  0  0  0  0  0
   11.0295   -3.2819   25.9528 C   0  0  0  0  0  0  0  0  0  0  0  0
    9.8368   -4.0493   25.4646 C   0  0  0  0  0  0  0  0  0  0  0  0
    8.9088   -3.4336   24.4598 C   0  0  0  0  0  0  0  0  0  0  0  0
    7.7160   -4.2011   23.9715 C   0  0  0  0  0  0  0  0  0  0  0  0
    7.4513   -5.5842   24.4881 O   0  0  0  0  0  0  0  0  0  0  0  0
   10.1988    1.9080   22.6634 C   0  0  0  0  0  0  0  0  0  0  0  0
   11.6779    1.6995   22.5264 C   0  0  0  0  0  0  0  0  0  0  0  0
   12.6118    2.8699   22.6152 N   0  0  0  0  0  0  0  0  0  0  0  0
   12.0665    4.2490   22.8410 C   0  0  0  0  0  0  0  0  0  0  0  0
   10.5874    4.4575   22.9779 C   0  0  0  0  0  0  0  0  0  0  0  0
   10.0421    5.8366   23.2037 C   0  0  0  0  0  0  0  0  0  0  0  0
    8.5630    6.0450   23.3406 C   0  0  0  0  0  0  0  0  0  0  0  0
    7.6291    4.8746   23.2518 C   0  0  0  0  0  0  0  0  0  0  0  0
    8.1744    3.4956   23.0261 C   0  0  0  0  0  0  0  0  0  0  0  0
    9.6535    3.2870   22.8891 C   0  0  0  0  0  0  0  0  0  0  0  0
    5.5952   -4.3528   22.4785 C   0  0  0  0  0  0  0  0  0  0  0  0
    5.5689   -5.8485   22.5895 C   0  0  0  0  0  0  0  0  0  0  0  0
    0.6639   -7.4966   23.0630 C   0  0  0  0  0  0  0  0  0  0  0  0
    2.0442   -7.3461   23.6305 C   0  0  0  0  0  0  0  0  0  0  0  0
    3.1164   -6.6725   22.8263 C   0  0  0  0  0  0  0  0  0  0  0  0
    4.4967   -6.5221   23.3937 N   0  0  0  0  0  0  0  0  0  0  0  0
    4.8050   -7.0452   24.7653 C   0  0  0  0  0  0  0  0  0  0  0  0
    3.7328   -7.7188   25.5695 C   0  0  0  0  0  0  0  0  0  0  0  0
    4.0410   -8.2420   26.9411 C   0  0  0  0  0  0  0  0  0  0  0  0
    2.3524   -7.8693   25.0021 O   0  0  0  0  0  0  0  0  0  0  0  0
    4.2872   -6.1663   22.4610 H   0  0  0  0  0  0  0  0  0  0  0  0
 32 31  1  0  0  0
 32 33  1  0  0  0
 33 34  1  0  0  0
 34 30  1  0  0  0
 30 29  1  0  0  0
 29  1  1  0  0  0
  1  2  1  0  0  0
  3  2  1  0  0  0
  3  4  1  0  0  0
  4  5  2  0  0  0
  4  6  1  0  0  0
  6 19  1  0  0  0
 19 20  2  0  0  0
 20 21  1  0  0  0
 21 22  2  0  0  0
 22 23  1  0  0  0
 23 24  2  0  0  0
 24 25  1  0  0  0
 25 26  2  0  0  0
 26 27  1  0  0  0
 27 28  2  0  0  0
  6  7  1  0  0  0
  7  8  1  0  0  0
  8  9  1  0  0  0
  3 10  1  0  0  0
 10 11  2  0  0  0
 11 12  1  0  0  0
 12 13  1  0  0  0
 12 14  2  0  0  0
 14 15  1  0  0  0
 15 16  2  0  0  0
 16 17  1  0  0  0
 17 18  2  0  0  0
 34 35  1  0  0  0
 35 36  1  0  0  0
 36 37  1  0  0  0
 36 38  1  0  0  0
 38 32  1  0  0  0
 17  1  1  0  0  0
  8  3  1  0  0  0
 16 10  1  0  0  0
 28 19  1  0  0  0
 28 23  1  0  0  0
 34 39  1  0  0  0
M  CHG 1  34   1
M  END
> <minimizedAffinity>
-8.68015

> <CNNscore>
0.2192995995

> <CNNaffinity>
6.5087728500

> <CNN_VS>
1.4273712635

> <CNNaffinity_variance>
0.1502977908

$$$$



 39 44  0  0  0  0  0  0  0  0999 V2000
    9.7260    0.6514   22.8461 N   0  0  0  0  0  0  0  0  0  0  0  0
    8.5922   -0.3187   22.6933 C   0  0  0  0  0  0  0  0  0  0  0  0
    8.6117   -1.6189   23.4409 C   0  0  0  0  0  0  0  0  0  0  0  0
    8.4931   -2.9507   24.1209 C   0  0  0  0  0  0  0  0  0  0  0  0
    9.1043   -3.6565   24.8985 O   0  0  0  0  0  0  0  0  0  0  0  0
    7.2056   -3.5825   23.6815 N   0  0  0  0  0  0  0  0  0  0  0  0
    6.5285   -2.6413   22.7299 C   0  0  0  0  0  0  0  0  0  0  0  0
    7.3975   -1.4277   22.5812 C   0  0  0  0  0  0  0  0  0  0  0  0
    7.1039   -0.2328   21.7234 C   0  0  0  0  0  0  0  0  0  0  0  0
    9.7651   -1.9490   24.3415 C   0  0  0  0  0  0  0  0  0  0  0  0
    9.7846   -3.2492   25.0892 C   0  0  0  0  0  0  0  0  0  0  0  0
   10.9378   -3.5793   25.9897 C   0  0  0  0  0  0  0  0  0  0  0  0
   10.9574   -4.8795   26.7375 Cl  0  0  0  0  0  0  0  0  0  0  0  0
   12.0716   -2.6091   26.1426 C   0  0  0  0  0  0  0  0  0  0  0  0
   12.0521   -1.3089   25.3949 C   0  0  0  0  0  0  0  0  0  0  0  0
   10.8988   -0.9789   24.4944 C   0  0  0  0  0  0  0  0  0  0  0  0
   10.8793    0.3214   23.7467 C   0  0  0  0  0  0  0  0  0  0  0  0
   12.0130    1.2916   23.8995 O   0  0  0  0  0  0  0  0  0  0  0  0
    6.6864   -4.9206   24.1172 C   0  0  0  0  0  0  0  0  0  0  0  0
    7.2897   -6.1765   23.5614 C   0  0  0  0  0  0  0  0  0  0  0  0
    6.7705   -7.5146   23.9971 N   0  0  0  0  0  0  0  0  0  0  0  0
    5.6480   -7.5969   24.9886 C   0  0  0  0  0  0  0  0  0  0  0  0
    5.0446   -6.3411   25.5444 C   0  0  0  0  0  0  0  0  0  0  0  0
    3.9220   -6.4234   26.5360 C   0  0  0  0  0  0  0  0  0  0  0  0
    3.3188   -5.1675   27.0917 C   0  0  0  0  0  0  0  0  0  0  0  0
    3.8380   -3.8294   26.6560 C   0  0  0  0  0  0  0  0  0  0  0  0
    4.9605   -3.7471   25.6645 C   0  0  0  0  0  0  0  0  0  0  0  0
    5.5638   -5.0029   25.1087 C   0  0  0  0  0  0  0  0  0  0  0  0
    9.7064    1.9517   22.0984 C   0  0  0  0  0  0  0  0  0  0  0  0
   10.8324    2.9289   22.2637 C   0  0  0  0  0  0  0  0  0  0  0  0
    7.6485    6.6774   23.9404 C   0  0  0  0  0  0  0  0  0  0  0  0
    8.9454    6.2585   23.3139 C   0  0  0  0  0  0  0  0  0  0  0  0
    9.2404    4.8031   23.1020 C   0  0  0  0  0  0  0  0  0  0  0  0
   10.5374    4.3842   22.4755 N   0  0  0  0  0  0  0  0  0  0  0  0
   11.5392    5.4206   22.0608 C   0  0  0  0  0  0  0  0  0  0  0  0
   11.2442    6.8761   22.2727 C   0  0  0  0  0  0  0  0  0  0  0  0
   12.2461    7.9125   21.8580 C   0  0  0  0  0  0  0  0  0  0  0  0
    9.9473    7.2950   22.8992 O   0  0  0  0  0  0  0  0  0  0  0  0
    9.8561    3.6794   22.7575 H   0  0  0  0  0  0  0  0  0  0  0  0
 32 31  1  0  0  0
 32 33  1  0  0  0
 33 34  1  0  0  0
 34 30  1  0  0  0
 30 29  1  0  0  0
 29  1  1  0  0  0
  1  2  1  0  0  0
  3  2  1  0  0  0
  3  4  1  0  0  0
  4  5  2  0  0  0
  4  6  1  0  0  0
  6 19  1  0  0  0
 19 20  2  0  0  0
 20 21  1  0  0  0
 21 22  2  0  0  0
 22 23  1  0  0  0
 23 24  2  0  0  0
 24 25  1  0  0  0
 25 26  2  0  0  0
 26 27  1  0  0  0
 27 28  2  0  0  0
  6  7  1  0  0  0
  7  8  1  0  0  0
  8  9  1  0  0  0
  3 10  1  0  0  0
 10 11  2  0  0  0
 11 12  1  0  0  0
 12 13  1  0  0  0
 12 14  2  0  0  0
 14 15  1  0  0  0
 15 16  2  0  0  0
 16 17  1  0  0  0
 17 18  2  0  0  0
 34 35  1  0  0  0
 35 36  1  0  0  0
 36 37  1  0  0  0
 36 38  1  0  0  0
 38 32  1  0  0  0
 17  1  1  0  0  0
  8  3  1  0  0  0
 16 10  1  0  0  0
 28 19  1  0  0  0
 28 23  1  0  0  0
 34 39  1  0  0  0
M  CHG 1  34   1
M  END
> <minimizedAffinity>
-9.45532

> <CNNscore>
0.2143892944

> <CNNaffinity>
6.4858827591

> <CNN_VS>
1.3905038834

> <CNNaffinity_variance>
0.1680379808

$$$$



 39 44  0  0  0  0  0  0  0  0999 V2000
    9.9062    0.7078   22.7932 N   0  0  0  0  0  0  0  0  0  0  0  0
    8.7518   -0.2366   22.6335 C   0  0  0  0  0  0  0  0  0  0  0  0
    8.7340   -1.5335   23.3869 C   0  0  0  0  0  0  0  0  0  0  0  0
    8.5780   -2.8590   24.0715 C   0  0  0  0  0  0  0  0  0  0  0  0
    9.1651   -3.5751   24.8581 O   0  0  0  0  0  0  0  0  0  0  0  0
    7.2805   -3.4629   23.6223 N   0  0  0  0  0  0  0  0  0  0  0  0
    6.6346   -2.5106   22.6600 C   0  0  0  0  0  0  0  0  0  0  0  0
    7.5329   -1.3182   22.5146 C   0  0  0  0  0  0  0  0  0  0  0  0
    7.2753   -0.1207   21.6487 C   0  0  0  0  0  0  0  0  0  0  0  0
    9.8705   -1.8860   24.3002 C   0  0  0  0  0  0  0  0  0  0  0  0
    9.8527   -3.1829   25.0537 C   0  0  0  0  0  0  0  0  0  0  0  0
   10.9892   -3.5353   25.9669 C   0  0  0  0  0  0  0  0  0  0  0  0
   10.9714   -4.8323   26.7204 Cl  0  0  0  0  0  0  0  0  0  0  0  0
   12.1436   -2.5909   26.1266 C   0  0  0  0  0  0  0  0  0  0  0  0
   12.1615   -1.2941   25.3731 C   0  0  0  0  0  0  0  0  0  0  0  0
   11.0249   -0.9416   24.4599 C   0  0  0  0  0  0  0  0  0  0  0  0
   11.0427    0.3553   23.7064 C   0  0  0  0  0  0  0  0  0  0  0  0
   12.1971    1.2997   23.8661 O   0  0  0  0  0  0  0  0  0  0  0  0
    6.7262   -4.7867   24.0587 C   0  0  0  0  0  0  0  0  0  0  0  0
    7.2385   -6.0544   23.4418 C   0  0  0  0  0  0  0  0  0  0  0  0
    6.6843   -7.3782   23.8782 N   0  0  0  0  0  0  0  0  0  0  0  0
    5.6178   -7.4342   24.9315 C   0  0  0  0  0  0  0  0  0  0  0  0
    5.1055   -6.1665   25.5483 C   0  0  0  0  0  0  0  0  0  0  0  0
    4.0389   -6.2226   26.6017 C   0  0  0  0  0  0  0  0  0  0  0  0
    3.5267   -4.9548   27.2185 C   0  0  0  0  0  0  0  0  0  0  0  0
    4.0810   -3.6311   26.7821 C   0  0  0  0  0  0  0  0  0  0  0  0
    5.1475   -3.5750   25.7288 C   0  0  0  0  0  0  0  0  0  0  0  0
    5.6597   -4.8427   25.1119 C   0  0  0  0  0  0  0  0  0  0  0  0
    9.9240    2.0047   22.0397 C   0  0  0  0  0  0  0  0  0  0  0  0
   10.3996    3.2574   22.7139 C   0  0  0  0  0  0  0  0  0  0  0  0
    9.3920    8.2840   23.5610 C   0  0  0  0  0  0  0  0  0  0  0  0
    8.9212    6.8631   23.4640 C   0  0  0  0  0  0  0  0  0  0  0  0
    9.8958    5.7707   23.1374 C   0  0  0  0  0  0  0  0  0  0  0  0
    9.4250    4.3498   23.0405 N   0  0  0  0  0  0  0  0  0  0  0  0
    7.9796    4.0213   23.2701 C   0  0  0  0  0  0  0  0  0  0  0  0
    7.0049    5.1137   23.5967 C   0  0  0  0  0  0  0  0  0  0  0  0
    5.5594    4.7853   23.8263 C   0  0  0  0  0  0  0  0  0  0  0  0
    7.4757    6.5346   23.6936 O   0  0  0  0  0  0  0  0  0  0  0  0
   10.4079    4.5731   22.8843 H   0  0  0  0  0  0  0  0  0  0  0  0
 32 31  1  0  0  0
 32 33  1  0  0  0
 33 34  1  0  0  0
 34 30  1  0  0  0
 30 29  1  0  0  0
 29  1  1  0  0  0
  1  2  1  0  0  0
  3  2  1  0  0  0
  3  4  1  0  0  0
  4  5  2  0  0  0
  4  6  1  0  0  0
  6 19  1  0  0  0
 19 20  2  0  0  0
 20 21  1  0  0  0
 21 22  2  0  0  0
 22 23  1  0  0  0
 23 24  2  0  0  0
 24 25  1  0  0  0
 25 26  2  0  0  0
 26 27  1  0  0  0
 27 28  2  0  0  0
  6  7  1  0  0  0
  7  8  1  0  0  0
  8  9  1  0  0  0
  3 10  1  0  0  0
 10 11  2  0  0  0
 11 12  1  0  0  0
 12 13  1  0  0  0
 12 14  2  0  0  0
 14 15  1  0  0  0
 15 16  2  0  0  0
 16 17  1  0  0  0
 17 18  2  0  0  0
 34 35  1  0  0  0
 35 36  1  0  0  0
 36 37  1  0  0  0
 36 38  1  0  0  0
 38 32  1  0  0  0
 17  1  1  0  0  0
  8  3  1  0  0  0
 16 10  1  0  0  0
 28 19  1  0  0  0
 28 23  1  0  0  0
 34 39  1  0  0  0
M  CHG 1  34   1
M  END
> <minimizedAffinity>
-8.80100

> <CNNscore>
0.1912206560

> <CNNaffinity>
6.4547629356

> <CNN_VS>
1.2342840433

> <CNNaffinity_variance>
0.2931374609

$$$$
