


 39 44  0  0  0  0  0  0  0  0999 V2000
   -7.7036   -1.7189  -24.0397 N   0  0  0  0  0  0  0  0  0  0  0  0
   -7.9890   -0.2497  -24.1398 C   0  0  0  0  0  0  0  0  0  0  0  0
   -9.3828    0.2600  -23.9223 C   0  0  0  0  0  0  0  0  0  0  0  0
  -10.7194    0.9136  -23.7312 C   0  0  0  0  0  0  0  0  0  0  0  0
  -11.8707    0.6208  -23.4758 O   0  0  0  0  0  0  0  0  0  0  0  0
  -10.5445    2.3911  -23.9220 N   0  0  0  0  0  0  0  0  0  0  0  0
   -9.0998    2.6507  -24.2310 C   0  0  0  0  0  0  0  0  0  0  0  0
   -8.3819    1.3337  -24.2312 C   0  0  0  0  0  0  0  0  0  0  0  0
   -6.9197    1.1266  -24.4941 C   0  0  0  0  0  0  0  0  0  0  0  0
  -10.4913   -0.6994  -23.6046 C   0  0  0  0  0  0  0  0  0  0  0  0
  -11.8851   -0.1896  -23.3871 C   0  0  0  0  0  0  0  0  0  0  0  0
  -12.9935   -1.1491  -23.0694 C   0  0  0  0  0  0  0  0  0  0  0  0
  -14.3874   -0.6393  -22.8518 Cl  0  0  0  0  0  0  0  0  0  0  0  0
  -12.7080   -2.6182  -22.9692 C   0  0  0  0  0  0  0  0  0  0  0  0
  -11.3142   -3.1280  -23.1867 C   0  0  0  0  0  0  0  0  0  0  0  0
  -10.2058   -2.1686  -23.5044 C   0  0  0  0  0  0  0  0  0  0  0  0
   -8.8119   -2.6783  -23.7220 C   0  0  0  0  0  0  0  0  0  0  0  0
   -8.5265   -4.1475  -23.6218 O   0  0  0  0  0  0  0  0  0  0  0  0
  -11.6246    3.4271  -23.8214 C   0  0  0  0  0  0  0  0  0  0  0  0
  -12.4865    3.4953  -22.5956 C   0  0  0  0  0  0  0  0  0  0  0  0
  -13.5667    4.5313  -22.4950 N   0  0  0  0  0  0  0  0  0  0  0  0
  -13.7848    5.4990  -23.6202 C   0  0  0  0  0  0  0  0  0  0  0  0
  -12.9228    5.4307  -24.8459 C   0  0  0  0  0  0  0  0  0  0  0  0
  -13.1410    6.3985  -25.9711 C   0  0  0  0  0  0  0  0  0  0  0  0
  -12.2790    6.3302  -27.1967 C   0  0  0  0  0  0  0  0  0  0  0  0
  -11.1989    5.2942  -27.2973 C   0  0  0  0  0  0  0  0  0  0  0  0
  -10.9808    4.3265  -26.1722 C   0  0  0  0  0  0  0  0  0  0  0  0
  -11.8427    4.3948  -24.9465 C   0  0  0  0  0  0  0  0  0  0  0  0
   -6.3096   -2.2286  -24.2572 C   0  0  0  0  0  0  0  0  0  0  0  0
   -6.0665   -3.3672  -25.2030 C   0  0  0  0  0  0  0  0  0  0  0  0
   -3.0297   -7.5237  -25.9105 C   0  0  0  0  0  0  0  0  0  0  0  0
   -3.9678   -6.7318  -25.0485 C   0  0  0  0  0  0  0  0  0  0  0  0
   -4.5481   -5.4454  -25.5568 C   0  0  0  0  0  0  0  0  0  0  0  0
   -5.4862   -4.6535  -24.6948 N   0  0  0  0  0  0  0  0  0  0  0  0
   -5.8439   -5.1481  -23.3246 C   0  0  0  0  0  0  0  0  0  0  0  0
   -5.2636   -6.4345  -22.8163 C   0  0  0  0  0  0  0  0  0  0  0  0
   -5.6213   -6.9290  -21.4462 C   0  0  0  0  0  0  0  0  0  0  0  0
   -4.3255   -7.2264  -23.6783 O   0  0  0  0  0  0  0  0  0  0  0  0
   -5.2429   -4.3173  -25.6266 H   0  0  0  0  0  0  0  0  0  0  0  0
 32 31  1  0  0  0
 32 33  1  0  0  0
 33 34  1  0  0  0
 34 30  1  0  0  0
 30 29  1  0  0  0
 29  1  1  0  0  0
  1  2  1  0  0  0
  3  2  1  0  0  0
  3  4  1  0  0  0
  4  5  2  0  0  0
  4  6  1  0  0  0
  6 19  1  0  0  0
 19 20  2  0  0  0
 20 21  1  0  0  0
 21 22  2  0  0  0
 22 23  1  0  0  0
 23 24  2  0  0  0
 24 25  1  0  0  0
 25 26  2  0  0  0
 26 27  1  0  0  0
 27 28  2  0  0  0
  6  7  1  0  0  0
  7  8  1  0  0  0
  8  9  1  0  0  0
  3 10  1  0  0  0
 10 11  2  0  0  0
 11 12  1  0  0  0
 12 13  1  0  0  0
 12 14  2  0  0  0
 14 15  1  0  0  0
 15 16  2  0  0  0
 16 17  1  0  0  0
 17 18  2  0  0  0
 34 35  1  0  0  0
 35 36  1  0  0  0
 36 37  1  0  0  0
 36 38  1  0  0  0
 38 32  1  0  0  0
 17  1  1  0  0  0
  8  3  1  0  0  0
 16 10  1  0  0  0
 28 19  1  0  0  0
 28 23  1  0  0  0
 34 39  1  0  0  0
M  CHG 1  34   1
M  END
> <minimizedAffinity>
-7.96953

> <CNNscore>
0.8368634582

> <CNNaffinity>
6.9210028648

> <CNN_VS>
5.7919344902

> <CNNaffinity_variance>
0.0281328056

$$$$



 39 44  0  0  0  0  0  0  0  0999 V2000
   -7.6174   -1.6875  -24.1217 N   0  0  0  0  0  0  0  0  0  0  0  0
   -7.9397   -0.2258  -24.2196 C   0  0  0  0  0  0  0  0  0  0  0  0
   -9.3408    0.2512  -23.9761 C   0  0  0  0  0  0  0  0  0  0  0  0
  -10.6885    0.8733  -23.7605 C   0  0  0  0  0  0  0  0  0  0  0  0
  -11.8273    0.5539  -23.4821 O   0  0  0  0  0  0  0  0  0  0  0  0
  -10.5526    2.3540  -23.9580 N   0  0  0  0  0  0  0  0  0  0  0  0
   -9.1208    2.6471  -24.2957 C   0  0  0  0  0  0  0  0  0  0  0  0
   -8.3719    1.3475  -24.3069 C   0  0  0  0  0  0  0  0  0  0  0  0
   -6.9106    1.1746  -24.5978 C   0  0  0  0  0  0  0  0  0  0  0  0
  -10.4197   -0.7335  -23.6347 C   0  0  0  0  0  0  0  0  0  0  0  0
  -11.8208   -0.2564  -23.3912 C   0  0  0  0  0  0  0  0  0  0  0  0
  -12.8996   -1.2411  -23.0498 C   0  0  0  0  0  0  0  0  0  0  0  0
  -14.3008   -0.7640  -22.8063 Cl  0  0  0  0  0  0  0  0  0  0  0  0
  -12.5773   -2.7028  -22.9519 C   0  0  0  0  0  0  0  0  0  0  0  0
  -11.1762   -3.1798  -23.1954 C   0  0  0  0  0  0  0  0  0  0  0  0
  -10.0974   -2.1952  -23.5368 C   0  0  0  0  0  0  0  0  0  0  0  0
   -8.6962   -2.6722  -23.7803 C   0  0  0  0  0  0  0  0  0  0  0  0
   -8.3739   -4.1339  -23.6824 O   0  0  0  0  0  0  0  0  0  0  0  0
  -11.6550    3.3643  -23.8387 C   0  0  0  0  0  0  0  0  0  0  0  0
  -12.4980    3.4116  -22.5989 C   0  0  0  0  0  0  0  0  0  0  0  0
  -13.6003    4.4219  -22.4796 N   0  0  0  0  0  0  0  0  0  0  0  0
  -13.8597    5.3847  -23.6001 C   0  0  0  0  0  0  0  0  0  0  0  0
  -13.0166    5.3374  -24.8399 C   0  0  0  0  0  0  0  0  0  0  0  0
  -13.2760    6.3003  -25.9605 C   0  0  0  0  0  0  0  0  0  0  0  0
  -12.4329    6.2529  -27.2002 C   0  0  0  0  0  0  0  0  0  0  0  0
  -11.3306    5.2427  -27.3195 C   0  0  0  0  0  0  0  0  0  0  0  0
  -11.0713    4.2798  -26.1990 C   0  0  0  0  0  0  0  0  0  0  0  0
  -11.9143    4.3271  -24.9592 C   0  0  0  0  0  0  0  0  0  0  0  0
   -6.2162   -2.1646  -24.3652 C   0  0  0  0  0  0  0  0  0  0  0  0
   -5.8508   -2.7757  -25.6854 C   0  0  0  0  0  0  0  0  0  0  0  0
   -4.8747   -7.8241  -24.9369 C   0  0  0  0  0  0  0  0  0  0  0  0
   -5.6827   -6.7395  -25.5855 C   0  0  0  0  0  0  0  0  0  0  0  0
   -5.3627   -5.2999  -25.3112 C   0  0  0  0  0  0  0  0  0  0  0  0
   -6.1708   -4.2153  -25.9597 N   0  0  0  0  0  0  0  0  0  0  0  0
   -7.2987   -4.5702  -26.8826 C   0  0  0  0  0  0  0  0  0  0  0  0
   -7.6187   -6.0098  -27.1569 C   0  0  0  0  0  0  0  0  0  0  0  0
   -8.7467   -6.3647  -28.0797 C   0  0  0  0  0  0  0  0  0  0  0  0
   -6.8107   -7.0944  -26.5084 O   0  0  0  0  0  0  0  0  0  0  0  0
   -5.4037   -3.9739  -25.3322 H   0  0  0  0  0  0  0  0  0  0  0  0
 32 31  1  0  0  0
 32 33  1  0  0  0
 33 34  1  0  0  0
 34 30  1  0  0  0
 30 29  1  0  0  0
 29  1  1  0  0  0
  1  2  1  0  0  0
  3  2  1  0  0  0
  3  4  1  0  0  0
  4  5  2  0  0  0
  4  6  1  0  0  0
  6 19  1  0  0  0
 19 20  2  0  0  0
 20 21  1  0  0  0
 21 22  2  0  0  0
 22 23  1  0  0  0
 23 24  2  0  0  0
 24 25  1  0  0  0
 25 26  2  0  0  0
 26 27  1  0  0  0
 27 28  2  0  0  0
  6  7  1  0  0  0
  7  8  1  0  0  0
  8  9  1  0  0  0
  3 10  1  0  0  0
 10 11  2  0  0  0
 11 12  1  0  0  0
 12 13  1  0  0  0
 12 14  2  0  0  0
 14 15  1  0  0  0
 15 16  2  0  0  0
 16 17  1  0  0  0
 17 18  2  0  0  0
 34 35  1  0  0  0
 35 36  1  0  0  0
 36 37  1  0  0  0
 36 38  1  0  0  0
 38 32  1  0  0  0
 17  1  1  0  0  0
  8  3  1  0  0  0
 16 10  1  0  0  0
 28 19  1  0  0  0
 28 23  1  0  0  0
 34 39  1  0  0  0
M  CHG 1  34   1
M  END
> <minimizedAffinity>
-8.16489

> <CNNscore>
0.8080617785

> <CNNaffinity>
6.9868936539

> <CNN_VS>
5.6458415985

> <CNNaffinity_variance>
0.0565438382

$$$$



 39 44  0  0  0  0  0  0  0  0999 V2000
   -7.9917   -1.5795  -24.6673 N   0  0  0  0  0  0  0  0  0  0  0  0
   -8.2941   -0.1105  -24.6952 C   0  0  0  0  0  0  0  0  0  0  0  0
   -9.6495    0.3840  -24.2852 C   0  0  0  0  0  0  0  0  0  0  0  0
  -10.9522    1.0234  -23.9055 C   0  0  0  0  0  0  0  0  0  0  0  0
  -12.0588    0.7166  -23.5084 O   0  0  0  0  0  0  0  0  0  0  0  0
  -10.8102    2.5060  -24.0833 N   0  0  0  0  0  0  0  0  0  0  0  0
   -9.4196    2.7830  -24.5728 C   0  0  0  0  0  0  0  0  0  0  0  0
   -8.7023    1.4716  -24.6976 C   0  0  0  0  0  0  0  0  0  0  0  0
   -7.2864    1.2811  -25.1546 C   0  0  0  0  0  0  0  0  0  0  0  0
  -10.7026   -0.5903  -23.8473 C   0  0  0  0  0  0  0  0  0  0  0  0
  -12.0580   -0.0957  -23.4373 C   0  0  0  0  0  0  0  0  0  0  0  0
  -13.1110   -1.0701  -22.9994 C   0  0  0  0  0  0  0  0  0  0  0  0
  -14.4666   -0.5755  -22.5894 Cl  0  0  0  0  0  0  0  0  0  0  0  0
  -12.8086   -2.5390  -22.9715 C   0  0  0  0  0  0  0  0  0  0  0  0
  -11.4532   -3.0336  -23.3815 C   0  0  0  0  0  0  0  0  0  0  0  0
  -10.4002   -2.0593  -23.8194 C   0  0  0  0  0  0  0  0  0  0  0  0
   -9.0447   -2.5538  -24.2294 C   0  0  0  0  0  0  0  0  0  0  0  0
   -8.7422   -4.0228  -24.2015 O   0  0  0  0  0  0  0  0  0  0  0  0
  -11.8722    3.5316  -23.8181 C   0  0  0  0  0  0  0  0  0  0  0  0
  -12.6252    3.5134  -22.5209 C   0  0  0  0  0  0  0  0  0  0  0  0
  -13.6873    4.5389  -22.2557 N   0  0  0  0  0  0  0  0  0  0  0  0
  -13.9963    5.5827  -23.2877 C   0  0  0  0  0  0  0  0  0  0  0  0
  -13.2433    5.6009  -24.5849 C   0  0  0  0  0  0  0  0  0  0  0  0
  -13.5523    6.6447  -25.6169 C   0  0  0  0  0  0  0  0  0  0  0  0
  -12.7993    6.6629  -26.9141 C   0  0  0  0  0  0  0  0  0  0  0  0
  -11.7373    5.6373  -27.1793 C   0  0  0  0  0  0  0  0  0  0  0  0
  -11.4282    4.5936  -26.1473 C   0  0  0  0  0  0  0  0  0  0  0  0
  -12.1812    4.5753  -24.8501 C   0  0  0  0  0  0  0  0  0  0  0  0
   -6.6361   -2.0740  -25.0773 C   0  0  0  0  0  0  0  0  0  0  0  0
   -6.2085   -3.4682  -24.7258 C   0  0  0  0  0  0  0  0  0  0  0  0
   -5.4018   -2.0605  -19.7895 C   0  0  0  0  0  0  0  0  0  0  0  0
   -5.5577   -3.1342  -20.8253 C   0  0  0  0  0  0  0  0  0  0  0  0
   -5.8052   -2.7643  -22.2577 C   0  0  0  0  0  0  0  0  0  0  0  0
   -5.9611   -3.8381  -23.2934 N   0  0  0  0  0  0  0  0  0  0  0  0
   -5.8695   -5.2817  -22.8967 C   0  0  0  0  0  0  0  0  0  0  0  0
   -5.6220   -5.6517  -21.4642 C   0  0  0  0  0  0  0  0  0  0  0  0
   -5.5305   -7.0954  -21.0675 C   0  0  0  0  0  0  0  0  0  0  0  0
   -5.4661   -4.5780  -20.4285 O   0  0  0  0  0  0  0  0  0  0  0  0
   -6.0233   -2.8564  -23.5632 H   0  0  0  0  0  0  0  0  0  0  0  0
 32 31  1  0  0  0
 32 33  1  0  0  0
 33 34  1  0  0  0
 34 30  1  0  0  0
 30 29  1  0  0  0
 29  1  1  0  0  0
  1  2  1  0  0  0
  3  2  1  0  0  0
  3  4  1  0  0  0
  4  5  2  0  0  0
  4  6  1  0  0  0
  6 19  1  0  0  0
 19 20  2  0  0  0
 20 21  1  0  0  0
 21 22  2  0  0  0
 22 23  1  0  0  0
 23 24  2  0  0  0
 24 25  1  0  0  0
 25 26  2  0  0  0
 26 27  1  0  0  0
 27 28  2  0  0  0
  6  7  1  0  0  0
  7  8  1  0  0  0
  8  9  1  0  0  0
  3 10  1  0  0  0
 10 11  2  0  0  0
 11 12  1  0  0  0
 12 13  1  0  0  0
 12 14  2  0  0  0
 14 15  1  0  0  0
 15 16  2  0  0  0
 16 17  1  0  0  0
 17 18  2  0  0  0
 34 35  1  0  0  0
 35 36  1  0  0  0
 36 37  1  0  0  0
 36 38  1  0  0  0
 38 32  1  0  0  0
 17  1  1  0  0  0
  8  3  1  0  0  0
 16 10  1  0  0  0
 28 19  1  0  0  0
 28 23  1  0  0  0
 34 39  1  0  0  0
M  CHG 1  34   1
M  END
> <minimizedAffinity>
-8.15937

> <CNNscore>
0.7241138816

> <CNNaffinity>
7.0044593811

> <CNN_VS>
5.0720262527

> <CNNaffinity_variance>
0.0412883237

$$$$



 39 44  0  0  0  0  0  0  0  0999 V2000
   -7.0937   -1.0007  -23.1954 N   0  0  0  0  0  0  0  0  0  0  0  0
   -7.5355    0.4186  -23.3963 C   0  0  0  0  0  0  0  0  0  0  0  0
   -8.9977    0.7514  -23.4303 C   0  0  0  0  0  0  0  0  0  0  0  0
  -10.4170    1.2335  -23.4863 C   0  0  0  0  0  0  0  0  0  0  0  0
  -11.5503    0.8016  -23.4130 O   0  0  0  0  0  0  0  0  0  0  0  0
  -10.3942    2.7179  -23.7011 N   0  0  0  0  0  0  0  0  0  0  0  0
   -8.9608    3.1532  -23.7778 C   0  0  0  0  0  0  0  0  0  0  0  0
   -8.0977    1.9378  -23.6104 C   0  0  0  0  0  0  0  0  0  0  0  0
   -6.5980    1.9132  -23.6213 C   0  0  0  0  0  0  0  0  0  0  0  0
  -10.0182   -0.3353  -23.2634 C   0  0  0  0  0  0  0  0  0  0  0  0
  -11.4805   -0.0026  -23.2975 C   0  0  0  0  0  0  0  0  0  0  0  0
  -12.5009   -1.0892  -23.1306 C   0  0  0  0  0  0  0  0  0  0  0  0
  -13.9632   -0.7565  -23.1646 Cl  0  0  0  0  0  0  0  0  0  0  0  0
  -12.0591   -2.5085  -22.9297 C   0  0  0  0  0  0  0  0  0  0  0  0
  -10.5969   -2.8412  -22.8957 C   0  0  0  0  0  0  0  0  0  0  0  0
   -9.5765   -1.7546  -23.0626 C   0  0  0  0  0  0  0  0  0  0  0  0
   -8.1142   -2.0873  -23.0285 C   0  0  0  0  0  0  0  0  0  0  0  0
   -7.6724   -3.5066  -22.8277 O   0  0  0  0  0  0  0  0  0  0  0  0
  -11.5941    3.6103  -23.8185 C   0  0  0  0  0  0  0  0  0  0  0  0
  -12.4960    3.8137  -22.6373 C   0  0  0  0  0  0  0  0  0  0  0  0
  -13.6960    4.7061  -22.7548 N   0  0  0  0  0  0  0  0  0  0  0  0
  -13.9940    5.3950  -24.0534 C   0  0  0  0  0  0  0  0  0  0  0  0
  -13.0921    5.1916  -25.2346 C   0  0  0  0  0  0  0  0  0  0  0  0
  -13.3902    5.8806  -26.5333 C   0  0  0  0  0  0  0  0  0  0  0  0
  -12.4883    5.6771  -27.7145 C   0  0  0  0  0  0  0  0  0  0  0  0
  -11.2883    4.7847  -27.5970 C   0  0  0  0  0  0  0  0  0  0  0  0
  -10.9903    4.0958  -26.2984 C   0  0  0  0  0  0  0  0  0  0  0  0
  -11.8922    4.2992  -25.1172 C   0  0  0  0  0  0  0  0  0  0  0  0
   -5.6314   -1.3334  -23.1614 C   0  0  0  0  0  0  0  0  0  0  0  0
   -4.6137   -0.2340  -23.0860 C   0  0  0  0  0  0  0  0  0  0  0  0
   -1.4401    2.7201  -20.2223 C   0  0  0  0  0  0  0  0  0  0  0  0
   -2.6172    1.7956  -20.3212 C   0  0  0  0  0  0  0  0  0  0  0  0
   -3.0269    1.2431  -21.6541 C   0  0  0  0  0  0  0  0  0  0  0  0
   -4.2040    0.3185  -21.7530 N   0  0  0  0  0  0  0  0  0  0  0  0
   -4.9713   -0.0534  -20.5190 C   0  0  0  0  0  0  0  0  0  0  0  0
   -4.5616    0.4991  -19.1860 C   0  0  0  0  0  0  0  0  0  0  0  0
   -5.3289    0.1271  -17.9520 C   0  0  0  0  0  0  0  0  0  0  0  0
   -3.3845    1.4236  -19.0871 O   0  0  0  0  0  0  0  0  0  0  0  0
   -3.6822    0.5715  -22.5922 H   0  0  0  0  0  0  0  0  0  0  0  0
 32 31  1  0  0  0
 32 33  1  0  0  0
 33 34  1  0  0  0
 34 30  1  0  0  0
 30 29  1  0  0  0
 29  1  1  0  0  0
  1  2  1  0  0  0
  3  2  1  0  0  0
  3  4  1  0  0  0
  4  5  2  0  0  0
  4  6  1  0  0  0
  6 19  1  0  0  0
 19 20  2  0  0  0
 20 21  1  0  0  0
 21 22  2  0  0  0
 22 23  1  0  0  0
 23 24  2  0  0  0
 24 25  1  0  0  0
 25 26  2  0  0  0
 26 27  1  0  0  0
 27 28  2  0  0  0
  6  7  1  0  0  0
  7  8  1  0  0  0
  8  9  1  0  0  0
  3 10  1  0  0  0
 10 11  2  0  0  0
 11 12  1  0  0  0
 12 13  1  0  0  0
 12 14  2  0  0  0
 14 15  1  0  0  0
 15 16  2  0  0  0
 16 17  1  0  0  0
 17 18  2  0  0  0
 34 35  1  0  0  0
 35 36  1  0  0  0
 36 37  1  0  0  0
 36 38  1  0  0  0
 38 32  1  0  0  0
 17  1  1  0  0  0
  8  3  1  0  0  0
 16 10  1  0  0  0
 28 19  1  0  0  0
 28 23  1  0  0  0
 34 39  1  0  0  0
M  CHG 1  34   1
M  END
> <minimizedAffinity>
-9.24446

> <CNNscore>
0.6648439169

> <CNNaffinity>
6.7658295631

> <CNN_VS>
4.4982204437

> <CNNaffinity_variance>
0.0859954283

$$$$



 39 44  0  0  0  0  0  0  0  0999 V2000
   -7.1340   -0.9971  -23.1790 N   0  0  0  0  0  0  0  0  0  0  0  0
   -7.5727    0.4225  -23.3844 C   0  0  0  0  0  0  0  0  0  0  0  0
   -9.0342    0.7581  -23.4200 C   0  0  0  0  0  0  0  0  0  0  0  0
  -10.4525    1.2430  -23.4780 C   0  0  0  0  0  0  0  0  0  0  0  0
  -11.5868    0.8137  -23.4036 O   0  0  0  0  0  0  0  0  0  0  0  0
  -10.4266    2.7266  -23.6974 N   0  0  0  0  0  0  0  0  0  0  0  0
   -8.9923    3.1587  -23.7750 C   0  0  0  0  0  0  0  0  0  0  0  0
   -8.1318    1.9421  -23.6035 C   0  0  0  0  0  0  0  0  0  0  0  0
   -6.6321    1.9144  -23.6139 C   0  0  0  0  0  0  0  0  0  0  0  0
  -10.0571   -0.3259  -23.2500 C   0  0  0  0  0  0  0  0  0  0  0  0
  -11.5186    0.0097  -23.2855 C   0  0  0  0  0  0  0  0  0  0  0  0
  -12.5413   -1.0743  -23.1156 C   0  0  0  0  0  0  0  0  0  0  0  0
  -14.0029   -0.7387  -23.1511 Cl  0  0  0  0  0  0  0  0  0  0  0  0
  -12.1025   -2.4939  -22.9101 C   0  0  0  0  0  0  0  0  0  0  0  0
  -10.6410   -2.8295  -22.8746 C   0  0  0  0  0  0  0  0  0  0  0  0
   -9.6183   -1.7455  -23.0445 C   0  0  0  0  0  0  0  0  0  0  0  0
   -8.1567   -2.0811  -23.0090 C   0  0  0  0  0  0  0  0  0  0  0  0
   -7.7179   -3.5007  -22.8035 O   0  0  0  0  0  0  0  0  0  0  0  0
  -11.6247    3.6211  -23.8180 C   0  0  0  0  0  0  0  0  0  0  0  0
  -12.5312    3.8235  -22.6401 C   0  0  0  0  0  0  0  0  0  0  0  0
  -13.7292    4.7180  -22.7607 N   0  0  0  0  0  0  0  0  0  0  0  0
  -14.0208    5.4100  -24.0592 C   0  0  0  0  0  0  0  0  0  0  0  0
  -13.1143    5.2076  -25.2371 C   0  0  0  0  0  0  0  0  0  0  0  0
  -13.4059    5.8997  -26.5356 C   0  0  0  0  0  0  0  0  0  0  0  0
  -12.4993    5.6973  -27.7134 C   0  0  0  0  0  0  0  0  0  0  0  0
  -11.3013    4.8028  -27.5928 C   0  0  0  0  0  0  0  0  0  0  0  0
  -11.0097    4.1107  -26.2943 C   0  0  0  0  0  0  0  0  0  0  0  0
  -11.9162    4.3132  -25.1164 C   0  0  0  0  0  0  0  0  0  0  0  0
   -5.6724   -1.3327  -23.1434 C   0  0  0  0  0  0  0  0  0  0  0  0
   -4.6519   -0.2347  -23.0884 C   0  0  0  0  0  0  0  0  0  0  0  0
   -5.2849    0.1228  -17.9434 C   0  0  0  0  0  0  0  0  0  0  0  0
   -4.5573    0.5203  -19.1934 C   0  0  0  0  0  0  0  0  0  0  0  0
   -4.9684   -0.0559  -20.5159 C   0  0  0  0  0  0  0  0  0  0  0  0
   -4.2408    0.3415  -21.7659 N   0  0  0  0  0  0  0  0  0  0  0  0
   -3.1021    1.3152  -21.6935 C   0  0  0  0  0  0  0  0  0  0  0  0
   -2.6910    1.8915  -20.3710 C   0  0  0  0  0  0  0  0  0  0  0  0
   -1.5523    2.8652  -20.2986 C   0  0  0  0  0  0  0  0  0  0  0  0
   -3.4186    1.4940  -19.1210 O   0  0  0  0  0  0  0  0  0  0  0  0
   -5.0151   -0.3206  -21.8152 H   0  0  0  0  0  0  0  0  0  0  0  0
 32 31  1  0  0  0
 32 33  1  0  0  0
 33 34  1  0  0  0
 34 30  1  0  0  0
 30 29  1  0  0  0
 29  1  1  0  0  0
  1  2  1  0  0  0
  3  2  1  0  0  0
  3  4  1  0  0  0
  4  5  2  0  0  0
  4  6  1  0  0  0
  6 19  1  0  0  0
 19 20  2  0  0  0
 20 21  1  0  0  0
 21 22  2  0  0  0
 22 23  1  0  0  0
 23 24  2  0  0  0
 24 25  1  0  0  0
 25 26  2  0  0  0
 26 27  1  0  0  0
 27 28  2  0  0  0
  6  7  1  0  0  0
  7  8  1  0  0  0
  8  9  1  0  0  0
  3 10  1  0  0  0
 10 11  2  0  0  0
 11 12  1  0  0  0
 12 13  1  0  0  0
 12 14  2  0  0  0
 14 15  1  0  0  0
 15 16  2  0  0  0
 16 17  1  0  0  0
 17 18  2  0  0  0
 34 35  1  0  0  0
 35 36  1  0  0  0
 36 37  1  0  0  0
 36 38  1  0  0  0
 38 32  1  0  0  0
 17  1  1  0  0  0
  8  3  1  0  0  0
 16 10  1  0  0  0
 28 19  1  0  0  0
 28 23  1  0  0  0
 34 39  1  0  0  0
M  CHG 1  34   1
M  END
> <minimizedAffinity>
-9.27905

> <CNNscore>
0.6541078091

> <CNNaffinity>
6.7709617615

> <CNN_VS>
4.4289388657

> <CNNaffinity_variance>
0.0831143111

$$$$



 39 44  0  0  0  0  0  0  0  0999 V2000
   -7.5229   -1.9445  -23.4610 N   0  0  0  0  0  0  0  0  0  0  0  0
   -7.5206   -0.5707  -24.0633 C   0  0  0  0  0  0  0  0  0  0  0  0
   -8.8072    0.1862  -24.2096 C   0  0  0  0  0  0  0  0  0  0  0  0
  -10.0090    1.0592  -24.4190 C   0  0  0  0  0  0  0  0  0  0  0  0
  -11.2108    1.0470  -24.2405 O   0  0  0  0  0  0  0  0  0  0  0  0
   -9.5473    2.3407  -25.0471 N   0  0  0  0  0  0  0  0  0  0  0  0
   -8.0602    2.2598  -25.2259 C   0  0  0  0  0  0  0  0  0  0  0  0
   -7.6028    0.9283  -24.7083 C   0  0  0  0  0  0  0  0  0  0  0  0
   -6.1892    0.4269  -24.6923 C   0  0  0  0  0  0  0  0  0  0  0  0
  -10.0963   -0.4306  -23.7536 C   0  0  0  0  0  0  0  0  0  0  0  0
  -11.3830    0.3264  -23.8999 C   0  0  0  0  0  0  0  0  0  0  0  0
  -12.6720   -0.2905  -23.4438 C   0  0  0  0  0  0  0  0  0  0  0  0
  -13.9588    0.4665  -23.5901 Cl  0  0  0  0  0  0  0  0  0  0  0  0
  -12.6743   -1.6642  -22.8415 C   0  0  0  0  0  0  0  0  0  0  0  0
  -11.3876   -2.4212  -22.6952 C   0  0  0  0  0  0  0  0  0  0  0  0
  -10.0986   -1.8043  -23.1513 C   0  0  0  0  0  0  0  0  0  0  0  0
   -8.8119   -2.5613  -23.0050 C   0  0  0  0  0  0  0  0  0  0  0  0
   -8.8142   -3.9350  -22.4027 O   0  0  0  0  0  0  0  0  0  0  0  0
  -10.4195    3.4996  -25.4292 C   0  0  0  0  0  0  0  0  0  0  0  0
  -10.2729    4.1354  -26.7799 C   0  0  0  0  0  0  0  0  0  0  0  0
  -11.1451    5.2943  -27.1621 N   0  0  0  0  0  0  0  0  0  0  0  0
  -12.1640    5.8175  -26.1935 C   0  0  0  0  0  0  0  0  0  0  0  0
  -12.3107    5.1817  -24.8428 C   0  0  0  0  0  0  0  0  0  0  0  0
  -13.3297    5.7050  -23.8743 C   0  0  0  0  0  0  0  0  0  0  0  0
  -13.4762    5.0692  -22.5236 C   0  0  0  0  0  0  0  0  0  0  0  0
  -12.6040    3.9102  -22.1415 C   0  0  0  0  0  0  0  0  0  0  0  0
  -11.5851    3.3871  -23.1100 C   0  0  0  0  0  0  0  0  0  0  0  0
  -11.4384    4.0228  -24.4607 C   0  0  0  0  0  0  0  0  0  0  0  0
   -6.2361   -2.7014  -23.3147 C   0  0  0  0  0  0  0  0  0  0  0  0
   -6.2593   -4.1582  -22.9582 C   0  0  0  0  0  0  0  0  0  0  0  0
   -8.2928   -6.1678  -27.2971 C   0  0  0  0  0  0  0  0  0  0  0  0
   -7.2590   -6.2006  -26.2107 C   0  0  0  0  0  0  0  0  0  0  0  0
   -7.2761   -5.1630  -25.1276 C   0  0  0  0  0  0  0  0  0  0  0  0
   -6.2423   -5.1958  -24.0413 N   0  0  0  0  0  0  0  0  0  0  0  0
   -5.1914   -6.2661  -24.0380 C   0  0  0  0  0  0  0  0  0  0  0  0
   -5.1744   -7.3038  -25.1211 C   0  0  0  0  0  0  0  0  0  0  0  0
   -4.1235   -8.3741  -25.1178 C   0  0  0  0  0  0  0  0  0  0  0  0
   -6.2081   -7.2710  -26.2075 O   0  0  0  0  0  0  0  0  0  0  0  0
   -6.9569   -4.4679  -24.0435 H   0  0  0  0  0  0  0  0  0  0  0  0
 32 31  1  0  0  0
 32 33  1  0  0  0
 33 34  1  0  0  0
 34 30  1  0  0  0
 30 29  1  0  0  0
 29  1  1  0  0  0
  1  2  1  0  0  0
  3  2  1  0  0  0
  3  4  1  0  0  0
  4  5  2  0  0  0
  4  6  1  0  0  0
  6 19  1  0  0  0
 19 20  2  0  0  0
 20 21  1  0  0  0
 21 22  2  0  0  0
 22 23  1  0  0  0
 23 24  2  0  0  0
 24 25  1  0  0  0
 25 26  2  0  0  0
 26 27  1  0  0  0
 27 28  2  0  0  0
  6  7  1  0  0  0
  7  8  1  0  0  0
  8  9  1  0  0  0
  3 10  1  0  0  0
 10 11  2  0  0  0
 11 12  1  0  0  0
 12 13  1  0  0  0
 12 14  2  0  0  0
 14 15  1  0  0  0
 15 16  2  0  0  0
 16 17  1  0  0  0
 17 18  2  0  0  0
 34 35  1  0  0  0
 35 36  1  0  0  0
 36 37  1  0  0  0
 36 38  1  0  0  0
 38 32  1  0  0  0
 17  1  1  0  0  0
  8  3  1  0  0  0
 16 10  1  0  0  0
 28 19  1  0  0  0
 28 23  1  0  0  0
 34 39  1  0  0  0
M  CHG 1  34   1
M  END
> <minimizedAffinity>
-7.67801

> <CNNscore>
0.3945247233

> <CNNaffinity>
6.4049720764

> <CNN_VS>
2.5269198418

> <CNNaffinity_variance>
0.3577850163

$$$$



 39 44  0  0  0  0  0  0  0  0999 V2000
   -9.1467    2.7435  -24.4593 N   0  0  0  0  0  0  0  0  0  0  0  0
   -8.2355    1.5568  -24.5673 C   0  0  0  0  0  0  0  0  0  0  0  0
   -8.7575    0.1814  -24.2744 C   0  0  0  0  0  0  0  0  0  0  0  0
   -9.1350   -1.2467  -24.0139 C   0  0  0  0  0  0  0  0  0  0  0  0
  -10.0985   -1.9094  -23.6841 O   0  0  0  0  0  0  0  0  0  0  0  0
   -7.9197   -2.0963  -24.2404 N   0  0  0  0  0  0  0  0  0  0  0  0
   -6.7910   -1.1932  -24.6409 C   0  0  0  0  0  0  0  0  0  0  0  0
   -7.3088    0.2145  -24.6620 C   0  0  0  0  0  0  0  0  0  0  0  0
   -6.5168    1.4401  -25.0096 C   0  0  0  0  0  0  0  0  0  0  0  0
  -10.1906   -0.0074  -23.8735 C   0  0  0  0  0  0  0  0  0  0  0  0
  -10.7125   -1.3828  -23.5806 C   0  0  0  0  0  0  0  0  0  0  0  0
  -12.1455   -1.5715  -23.1797 C   0  0  0  0  0  0  0  0  0  0  0  0
  -12.6675   -2.9470  -22.8868 Cl  0  0  0  0  0  0  0  0  0  0  0  0
  -13.0566   -0.3848  -23.0717 C   0  0  0  0  0  0  0  0  0  0  0  0
  -12.5347    0.9906  -23.3646 C   0  0  0  0  0  0  0  0  0  0  0  0
  -11.1017    1.1793  -23.7655 C   0  0  0  0  0  0  0  0  0  0  0  0
  -10.5797    2.5548  -24.0584 C   0  0  0  0  0  0  0  0  0  0  0  0
  -11.4908    3.7414  -23.9504 O   0  0  0  0  0  0  0  0  0  0  0  0
   -7.8461   -3.5871  -24.0923 C   0  0  0  0  0  0  0  0  0  0  0  0
   -7.2567   -4.1894  -22.8514 C   0  0  0  0  0  0  0  0  0  0  0  0
   -7.1831   -5.6802  -22.7033 N   0  0  0  0  0  0  0  0  0  0  0  0
   -7.6988   -6.5688  -23.7962 C   0  0  0  0  0  0  0  0  0  0  0  0
   -8.2882   -5.9665  -25.0371 C   0  0  0  0  0  0  0  0  0  0  0  0
   -8.8039   -6.8552  -26.1300 C   0  0  0  0  0  0  0  0  0  0  0  0
   -9.3933   -6.2528  -27.3709 C   0  0  0  0  0  0  0  0  0  0  0  0
   -9.4669   -4.7620  -27.5190 C   0  0  0  0  0  0  0  0  0  0  0  0
   -8.9512   -3.8734  -26.4261 C   0  0  0  0  0  0  0  0  0  0  0  0
   -8.3618   -4.4757  -25.1852 C   0  0  0  0  0  0  0  0  0  0  0  0
   -8.6247    4.1190  -24.7522 C   0  0  0  0  0  0  0  0  0  0  0  0
   -8.6919    4.6653  -26.1476 C   0  0  0  0  0  0  0  0  0  0  0  0
  -13.1111    7.3978  -26.0852 C   0  0  0  0  0  0  0  0  0  0  0  0
  -12.2297    6.3677  -26.7270 C   0  0  0  0  0  0  0  0  0  0  0  0
  -10.9015    6.0315  -26.1164 C   0  0  0  0  0  0  0  0  0  0  0  0
  -10.0201    5.0014  -26.7582 N   0  0  0  0  0  0  0  0  0  0  0  0
  -10.4669    4.3073  -28.0106 C   0  0  0  0  0  0  0  0  0  0  0  0
  -11.7952    4.6434  -28.6213 C   0  0  0  0  0  0  0  0  0  0  0  0
  -12.2419    3.9494  -29.8738 C   0  0  0  0  0  0  0  0  0  0  0  0
  -12.6765    5.6736  -27.9795 O   0  0  0  0  0  0  0  0  0  0  0  0
   -9.7163    5.4733  -25.9065 H   0  0  0  0  0  0  0  0  0  0  0  0
 32 31  1  0  0  0
 32 33  1  0  0  0
 33 34  1  0  0  0
 34 30  1  0  0  0
 30 29  1  0  0  0
 29  1  1  0  0  0
  1  2  1  0  0  0
  3  2  1  0  0  0
  3  4  1  0  0  0
  4  5  2  0  0  0
  4  6  1  0  0  0
  6 19  1  0  0  0
 19 20  2  0  0  0
 20 21  1  0  0  0
 21 22  2  0  0  0
 22 23  1  0  0  0
 23 24  2  0  0  0
 24 25  1  0  0  0
 25 26  2  0  0  0
 26 27  1  0  0  0
 27 28  2  0  0  0
  6  7  1  0  0  0
  7  8  1  0  0  0
  8  9  1  0  0  0
  3 10  1  0  0  0
 10 11  2  0  0  0
 11 12  1  0  0  0
 12 13  1  0  0  0
 12 14  2  0  0  0
 14 15  1  0  0  0
 15 16  2  0  0  0
 16 17  1  0  0  0
 17 18  2  0  0  0
 34 35  1  0  0  0
 35 36  1  0  0  0
 36 37  1  0  0  0
 36 38  1  0  0  0
 38 32  1  0  0  0
 17  1  1  0  0  0
  8  3  1  0  0  0
 16 10  1  0  0  0
 28 19  1  0  0  0
 28 23  1  0  0  0
 34 39  1  0  0  0
M  CHG 1  34   1
M  END
> <minimizedAffinity>
-7.77123

> <CNNscore>
0.3546742797

> <CNNaffinity>
6.4516701698

> <CNN_VS>
2.2882413864

> <CNNaffinity_variance>
0.0876849070

$$$$



 39 44  0  0  0  0  0  0  0  0999 V2000
   -9.2564   -2.0588  -23.0005 N   0  0  0  0  0  0  0  0  0  0  0  0
   -8.4340   -0.8358  -23.2794 C   0  0  0  0  0  0  0  0  0  0  0  0
   -9.1089    0.4766  -23.5482 C   0  0  0  0  0  0  0  0  0  0  0  0
   -9.6400    1.8501  -23.8330 C   0  0  0  0  0  0  0  0  0  0  0  0
  -10.6999    2.4350  -23.9379 O   0  0  0  0  0  0  0  0  0  0  0  0
   -8.4703    2.7633  -24.0521 N   0  0  0  0  0  0  0  0  0  0  0  0
   -7.2162    1.9541  -23.9027 C   0  0  0  0  0  0  0  0  0  0  0  0
   -7.6109    0.5408  -23.5913 C   0  0  0  0  0  0  0  0  0  0  0  0
   -6.6722   -0.6068  -23.3630 C   0  0  0  0  0  0  0  0  0  0  0  0
  -10.6062    0.5659  -23.5381 C   0  0  0  0  0  0  0  0  0  0  0  0
  -11.2811    1.8782  -23.8069 C   0  0  0  0  0  0  0  0  0  0  0  0
  -12.7784    1.9675  -23.7968 C   0  0  0  0  0  0  0  0  0  0  0  0
  -13.4533    3.2798  -24.0656 Cl  0  0  0  0  0  0  0  0  0  0  0  0
  -13.6008    0.7444  -23.5179 C   0  0  0  0  0  0  0  0  0  0  0  0
  -12.9259   -0.5679  -23.2491 C   0  0  0  0  0  0  0  0  0  0  0  0
  -11.4286   -0.6572  -23.2592 C   0  0  0  0  0  0  0  0  0  0  0  0
  -10.7537   -1.9696  -22.9904 C   0  0  0  0  0  0  0  0  0  0  0  0
  -11.5761   -3.1926  -22.7115 O   0  0  0  0  0  0  0  0  0  0  0  0
   -8.5422    4.2284  -24.3655 C   0  0  0  0  0  0  0  0  0  0  0  0
   -8.2674    5.2394  -23.2920 C   0  0  0  0  0  0  0  0  0  0  0  0
   -8.3392    6.7045  -23.6055 N   0  0  0  0  0  0  0  0  0  0  0  0
   -8.6859    7.1587  -24.9924 C   0  0  0  0  0  0  0  0  0  0  0  0
   -8.9607    6.1476  -26.0659 C   0  0  0  0  0  0  0  0  0  0  0  0
   -9.3074    6.6018  -27.4528 C   0  0  0  0  0  0  0  0  0  0  0  0
   -9.5823    5.5907  -28.5263 C   0  0  0  0  0  0  0  0  0  0  0  0
   -9.5104    4.1256  -28.2128 C   0  0  0  0  0  0  0  0  0  0  0  0
   -9.1637    3.6715  -26.8259 C   0  0  0  0  0  0  0  0  0  0  0  0
   -8.8889    4.6825  -25.7524 C   0  0  0  0  0  0  0  0  0  0  0  0
   -8.5814   -3.3712  -22.7317 C   0  0  0  0  0  0  0  0  0  0  0  0
   -7.4081   -3.7955  -23.5642 C   0  0  0  0  0  0  0  0  0  0  0  0
  -10.4190   -6.5059  -26.8180 C   0  0  0  0  0  0  0  0  0  0  0  0
   -9.0729   -6.2366  -26.2136 C   0  0  0  0  0  0  0  0  0  0  0  0
   -8.9136   -5.1507  -25.1911 C   0  0  0  0  0  0  0  0  0  0  0  0
   -7.5674   -4.8814  -24.5867 N   0  0  0  0  0  0  0  0  0  0  0  0
   -6.3806   -5.6980  -25.0046 C   0  0  0  0  0  0  0  0  0  0  0  0
   -6.5400   -6.7839  -26.0271 C   0  0  0  0  0  0  0  0  0  0  0  0
   -5.3532   -7.6005  -26.4450 C   0  0  0  0  0  0  0  0  0  0  0  0
   -7.8861   -7.0532  -26.6316 O   0  0  0  0  0  0  0  0  0  0  0  0
   -8.3744   -4.3261  -24.3024 H   0  0  0  0  0  0  0  0  0  0  0  0
 32 31  1  0  0  0
 32 33  1  0  0  0
 33 34  1  0  0  0
 34 30  1  0  0  0
 30 29  1  0  0  0
 29  1  1  0  0  0
  1  2  1  0  0  0
  3  2  1  0  0  0
  3  4  1  0  0  0
  4  5  2  0  0  0
  4  6  1  0  0  0
  6 19  1  0  0  0
 19 20  2  0  0  0
 20 21  1  0  0  0
 21 22  2  0  0  0
 22 23  1  0  0  0
 23 24  2  0  0  0
 24 25  1  0  0  0
 25 26  2  0  0  0
 26 27  1  0  0  0
 27 28  2  0  0  0
  6  7  1  0  0  0
  7  8  1  0  0  0
  8  9  1  0  0  0
  3 10  1  0  0  0
 10 11  2  0  0  0
 11 12  1  0  0  0
 12 13  1  0  0  0
 12 14  2  0  0  0
 14 15  1  0  0  0
 15 16  2  0  0  0
 16 17  1  0  0  0
 17 18  2  0  0  0
 34 35  1  0  0  0
 35 36  1  0  0  0
 36 37  1  0  0  0
 36 38  1  0  0  0
 38 32  1  0  0  0
 17  1  1  0  0  0
  8  3  1  0  0  0
 16 10  1  0  0  0
 28 19  1  0  0  0
 28 23  1  0  0  0
 34 39  1  0  0  0
M  CHG 1  34   1
M  END
> <minimizedAffinity>
-7.92439

> <CNNscore>
0.2476658821

> <CNNaffinity>
6.2931442261

> <CNN_VS>
1.5585970879

> <CNNaffinity_variance>
0.1825431138

$$$$



 39 44  0  0  0  0  0  0  0  0999 V2000
   -9.1601   -1.9768  -23.0491 N   0  0  0  0  0  0  0  0  0  0  0  0
   -8.3732   -0.7200  -23.2753 C   0  0  0  0  0  0  0  0  0  0  0  0
   -9.0856    0.5793  -23.5081 C   0  0  0  0  0  0  0  0  0  0  0  0
   -9.6561    1.9448  -23.7528 C   0  0  0  0  0  0  0  0  0  0  0  0
  -10.7324    2.4998  -23.8516 O   0  0  0  0  0  0  0  0  0  0  0  0
   -8.5131    2.9007  -23.9252 N   0  0  0  0  0  0  0  0  0  0  0  0
   -7.2361    2.1260  -23.7871 C   0  0  0  0  0  0  0  0  0  0  0  0
   -7.5899    0.6913  -23.5293 C   0  0  0  0  0  0  0  0  0  0  0  0
   -6.6186   -0.4339  -23.3280 C   0  0  0  0  0  0  0  0  0  0  0  0
  -10.5850    0.6218  -23.5146 C   0  0  0  0  0  0  0  0  0  0  0  0
  -11.2974    1.9212  -23.7473 C   0  0  0  0  0  0  0  0  0  0  0  0
  -12.7968    1.9637  -23.7539 C   0  0  0  0  0  0  0  0  0  0  0  0
  -13.5093    3.2630  -23.9866 Cl  0  0  0  0  0  0  0  0  0  0  0  0
  -13.5837    0.7069  -23.5276 C   0  0  0  0  0  0  0  0  0  0  0  0
  -12.8713   -0.5925  -23.2949 C   0  0  0  0  0  0  0  0  0  0  0  0
  -11.3719   -0.6350  -23.2884 C   0  0  0  0  0  0  0  0  0  0  0  0
  -10.6594   -1.9343  -23.0556 C   0  0  0  0  0  0  0  0  0  0  0  0
  -11.4464   -3.1911  -22.8294 O   0  0  0  0  0  0  0  0  0  0  0  0
   -8.6270    4.3728  -24.1894 C   0  0  0  0  0  0  0  0  0  0  0  0
   -9.7976    4.9082  -24.9597 C   0  0  0  0  0  0  0  0  0  0  0  0
   -9.9116    6.3803  -25.2239 N   0  0  0  0  0  0  0  0  0  0  0  0
   -8.8550    7.3171  -24.7179 C   0  0  0  0  0  0  0  0  0  0  0  0
   -7.6845    6.7817  -23.9476 C   0  0  0  0  0  0  0  0  0  0  0  0
   -6.6278    7.7186  -23.4416 C   0  0  0  0  0  0  0  0  0  0  0  0
   -5.4573    7.1832  -22.6714 C   0  0  0  0  0  0  0  0  0  0  0  0
   -5.3433    5.7110  -22.4072 C   0  0  0  0  0  0  0  0  0  0  0  0
   -6.3999    4.7742  -22.9132 C   0  0  0  0  0  0  0  0  0  0  0  0
   -7.5705    5.3096  -23.6834 C   0  0  0  0  0  0  0  0  0  0  0  0
   -8.4476   -3.2762  -22.8164 C   0  0  0  0  0  0  0  0  0  0  0  0
   -7.3289   -3.6914  -23.7253 C   0  0  0  0  0  0  0  0  0  0  0  0
   -5.4615   -7.4690  -26.7654 C   0  0  0  0  0  0  0  0  0  0  0  0
   -6.6189   -6.6550  -26.2674 C   0  0  0  0  0  0  0  0  0  0  0  0
   -6.3952   -5.5802  -25.2453 C   0  0  0  0  0  0  0  0  0  0  0  0
   -7.5525   -4.7662  -24.7474 N   0  0  0  0  0  0  0  0  0  0  0  0
   -8.9335   -5.0270  -25.2715 C   0  0  0  0  0  0  0  0  0  0  0  0
   -9.1573   -6.1019  -26.2936 C   0  0  0  0  0  0  0  0  0  0  0  0
  -10.5383   -6.3627  -26.8177 C   0  0  0  0  0  0  0  0  0  0  0  0
   -7.9999   -6.9159  -26.7916 O   0  0  0  0  0  0  0  0  0  0  0  0
   -6.6134   -4.5888  -24.3909 H   0  0  0  0  0  0  0  0  0  0  0  0
 32 31  1  0  0  0
 32 33  1  0  0  0
 33 34  1  0  0  0
 34 30  1  0  0  0
 30 29  1  0  0  0
 29  1  1  0  0  0
  1  2  1  0  0  0
  3  2  1  0  0  0
  3  4  1  0  0  0
  4  5  2  0  0  0
  4  6  1  0  0  0
  6 19  1  0  0  0
 19 20  2  0  0  0
 20 21  1  0  0  0
 21 22  2  0  0  0
 22 23  1  0  0  0
 23 24  2  0  0  0
 24 25  1  0  0  0
 25 26  2  0  0  0
 26 27  1  0  0  0
 27 28  2  0  0  0
  6  7  1  0  0  0
  7  8  1  0  0  0
  8  9  1  0  0  0
  3 10  1  0  0  0
 10 11  2  0  0  0
 11 12  1  0  0  0
 12 13  1  0  0  0
 12 14  2  0  0  0
 14 15  1  0  0  0
 15 16  2  0  0  0
 16 17  1  0  0  0
 17 18  2  0  0  0
 34 35  1  0  0  0
 35 36  1  0  0  0
 36 37  1  0  0  0
 36 38  1  0  0  0
 38 32  1  0  0  0
 17  1  1  0  0  0
  8  3  1  0  0  0
 16 10  1  0  0  0
 28 19  1  0  0  0
 28 23  1  0  0  0
 34 39  1  0  0  0
M  CHG 1  34   1
M  END
> <minimizedAffinity>
-8.12047

> <CNNscore>
0.2230648100

> <CNNaffinity>
6.1991920471

> <CNN_VS>
1.3828215599

> <CNNaffinity_variance>
0.3092790544

$$$$
