


 42 47  0  0  0  0  0  0  0  0999 V2000
    6.3492    1.2654   21.2219 N   0  0  0  0  0  0  0  0  0  0  0  0
    7.6702    1.2631   21.9326 C   0  0  0  0  0  0  0  0  0  0  0  0
    8.1945   -0.0056   22.5370 C   0  0  0  0  0  0  0  0  0  0  0  0
    8.8438   -1.1912   23.1873 C   0  0  0  0  0  0  0  0  0  0  0  0
    8.6421   -2.3738   23.3796 O   0  0  0  0  0  0  0  0  0  0  0  0
   10.1487   -0.7410   23.7744 N   0  0  0  0  0  0  0  0  0  0  0  0
   10.3059    0.7228   23.4868 C   0  0  0  0  0  0  0  0  0  0  0  0
    9.0982    1.1772   22.7221 C   0  0  0  0  0  0  0  0  0  0  0  0
    7.3979   -1.2722   22.4307 C   0  0  0  0  0  0  0  0  0  0  0  0
    7.9222   -2.5410   23.0351 C   0  0  0  0  0  0  0  0  0  0  0  0
    7.1255   -3.8074   22.9288 C   0  0  0  0  0  0  0  0  0  0  0  0
    7.6499   -5.0763   23.5332 Cl  0  0  0  0  0  0  0  0  0  0  0  0
    5.8046   -3.8052   22.2181 C   0  0  0  0  0  0  0  0  0  0  0  0
    5.2803   -2.5364   21.6137 C   0  0  0  0  0  0  0  0  0  0  0  0
    6.0769   -1.2700   21.7200 C   0  0  0  0  0  0  0  0  0  0  0  0
    5.5526   -0.0011   21.1156 C   0  0  0  0  0  0  0  0  0  0  0  0
    4.2316    0.0011   20.4050 O   0  0  0  0  0  0  0  0  0  0  0  0
   11.1249   -1.6032   24.5183 C   0  0  0  0  0  0  0  0  0  0  0  0
   12.5724   -1.6087   24.1248 C   0  0  0  0  0  0  0  0  0  0  0  0
   13.5486   -2.4710   24.8688 N   0  0  0  0  0  0  0  0  0  0  0  0
   13.0774   -3.3277   26.0063 C   0  0  0  0  0  0  0  0  0  0  0  0
   11.6300   -3.3222   26.3998 C   0  0  0  0  0  0  0  0  0  0  0  0
   11.1588   -4.1790   27.5374 C   0  0  0  0  0  0  0  0  0  0  0  0
    9.7113   -4.1734   27.9308 C   0  0  0  0  0  0  0  0  0  0  0  0
    8.7350   -3.3112   27.1869 C   0  0  0  0  0  0  0  0  0  0  0  0
    9.2062   -2.4545   26.0494 C   0  0  0  0  0  0  0  0  0  0  0  0
   10.6537   -2.4600   25.6558 C   0  0  0  0  0  0  0  0  0  0  0  0
    5.8249    2.5342   20.6175 C   0  0  0  0  0  0  0  0  0  0  0  0
    4.3270    5.9107   22.0686 C   0  0  0  0  0  0  0  0  0  0  0  0
    5.1373    4.9622   21.2357 N   0  0  0  0  0  0  0  0  0  0  0  0
    5.0146    3.4827   21.4504 C   0  0  0  0  0  0  0  0  0  0  0  0
    4.0814    2.9517   22.4980 O   0  0  0  0  0  0  0  0  0  0  0  0
    5.7497    5.3106   20.5482 H   0  0  0  0  0  0  0  0  0  0  0  0
    8.8395    2.5700   22.2290 C   0  0  0  0  0  0  0  0  0  0  0  0
    9.2702    3.7487   23.0506 N   0  0  0  0  0  0  0  0  0  0  0  0
    8.7691    3.9923   23.8623 H   0  0  0  0  0  0  0  0  0  0  0  0
   10.4643    4.5561   22.6357 C   0  0  0  0  0  0  0  0  0  0  0  0
   11.7991    4.0088   22.2247 C   0  0  0  0  0  0  0  0  0  0  0  0
   12.6930    5.1671   21.8940 N   0  0  0  0  0  0  0  0  0  0  0  0
   11.9107    6.4302   22.1006 N   0  0  0  0  0  0  0  0  0  0  0  0
   12.4170    7.8258   21.8864 C   0  0  0  0  0  0  0  0  0  0  0  0
   10.5333    6.0525   22.5590 C   0  0  0  0  0  0  0  0  0  0  0  0
 29 30  1  0  0  0
 30 31  1  0  0  0
 31 32  2  0  0  0
 31 28  1  0  0  0
 28  1  1  0  0  0
  1  2  1  0  0  0
  3  2  1  0  0  0
  3  4  1  0  0  0
  4  5  2  0  0  0
  4  6  1  0  0  0
  6 18  1  0  0  0
 18 19  2  0  0  0
 19 20  1  0  0  0
 20 21  2  0  0  0
 21 22  1  0  0  0
 22 23  2  0  0  0
 23 24  1  0  0  0
 24 25  2  0  0  0
 25 26  1  0  0  0
 26 27  2  0  0  0
  6  7  1  0  0  0
  7  8  1  0  0  0
  8 34  1  0  0  0
 34 35  1  0  0  0
 35 37  1  0  0  0
 37 38  1  0  0  0
 38 39  2  0  0  0
 39 40  1  0  0  0
 40 41  1  0  0  0
 40 42  1  0  0  0
  3  9  1  0  0  0
  9 10  2  0  0  0
 10 11  1  0  0  0
 11 12  1  0  0  0
 11 13  2  0  0  0
 13 14  1  0  0  0
 14 15  2  0  0  0
 15 16  1  0  0  0
 16 17  2  0  0  0
 16  1  1  0  0  0
  8  3  1  0  0  0
 42 37  2  0  0  0
 15  9  1  0  0  0
 27 18  1  0  0  0
 27 22  1  0  0  0
 30 33  1  0  0  0
 35 36  1  0  0  0
M  END
> <minimizedAffinity>
-8.35165

> <CNNscore>
0.3896854818

> <CNNaffinity>
7.2839746475

> <CNN_VS>
2.8384592533

> <CNNaffinity_variance>
0.1248194426

$$$$



 42 47  0  0  0  0  0  0  0  0999 V2000
    9.6461   -1.7670   24.0965 N   0  0  0  0  0  0  0  0  0  0  0  0
    9.2282   -0.4859   23.4376 C   0  0  0  0  0  0  0  0  0  0  0  0
    7.8351    0.0362   23.6288 C   0  0  0  0  0  0  0  0  0  0  0  0
    6.4833    0.6786   23.7279 C   0  0  0  0  0  0  0  0  0  0  0  0
    5.4019    0.4958   24.2510 O   0  0  0  0  0  0  0  0  0  0  0  0
    6.5084    1.9393   22.9155 N   0  0  0  0  0  0  0  0  0  0  0  0
    7.8758    2.0761   22.3142 C   0  0  0  0  0  0  0  0  0  0  0  0
    8.6957    0.8999   22.7551 C   0  0  0  0  0  0  0  0  0  0  0  0
    6.8598   -0.7228   24.4790 C   0  0  0  0  0  0  0  0  0  0  0  0
    5.4667   -0.2006   24.6702 C   0  0  0  0  0  0  0  0  0  0  0  0
    4.4915   -0.9596   25.5204 C   0  0  0  0  0  0  0  0  0  0  0  0
    3.0983   -0.4375   25.7117 Cl  0  0  0  0  0  0  0  0  0  0  0  0
    4.9093   -2.2407   26.1793 C   0  0  0  0  0  0  0  0  0  0  0  0
    6.3024   -2.7628   25.9881 C   0  0  0  0  0  0  0  0  0  0  0  0
    7.2777   -2.0039   25.1379 C   0  0  0  0  0  0  0  0  0  0  0  0
    8.6708   -2.5260   24.9467 C   0  0  0  0  0  0  0  0  0  0  0  0
    9.0887   -3.8071   25.6056 O   0  0  0  0  0  0  0  0  0  0  0  0
    5.3666    2.8953   22.7358 C   0  0  0  0  0  0  0  0  0  0  0  0
    5.0976    3.9456   23.7724 C   0  0  0  0  0  0  0  0  0  0  0  0
    3.9558    4.9016   23.5928 N   0  0  0  0  0  0  0  0  0  0  0  0
    3.0830    4.8074   22.3765 C   0  0  0  0  0  0  0  0  0  0  0  0
    3.3520    3.7571   21.3399 C   0  0  0  0  0  0  0  0  0  0  0  0
    2.4792    3.6629   20.1236 C   0  0  0  0  0  0  0  0  0  0  0  0
    2.7483    2.6126   19.0870 C   0  0  0  0  0  0  0  0  0  0  0  0
    3.8901    1.6565   19.2667 C   0  0  0  0  0  0  0  0  0  0  0  0
    4.7628    1.7508   20.4829 C   0  0  0  0  0  0  0  0  0  0  0  0
    4.4938    2.8011   21.5196 C   0  0  0  0  0  0  0  0  0  0  0  0
   11.0393   -2.2891   23.9052 C   0  0  0  0  0  0  0  0  0  0  0  0
   13.8252   -2.6642   26.7067 C   0  0  0  0  0  0  0  0  0  0  0  0
   12.7509   -3.0146   25.7201 N   0  0  0  0  0  0  0  0  0  0  0  0
   12.1135   -1.9387   24.8918 C   0  0  0  0  0  0  0  0  0  0  0  0
   12.5503   -0.5124   25.0499 O   0  0  0  0  0  0  0  0  0  0  0  0
   12.4642   -3.9506   25.6164 H   0  0  0  0  0  0  0  0  0  0  0  0
   10.1254    0.6341   22.3869 C   0  0  0  0  0  0  0  0  0  0  0  0
   11.2305    1.3497   23.1055 N   0  0  0  0  0  0  0  0  0  0  0  0
   11.7622    0.8770   23.7859 H   0  0  0  0  0  0  0  0  0  0  0  0
   11.5254    2.7856   22.7875 C   0  0  0  0  0  0  0  0  0  0  0  0
   12.8052    3.3165   22.2128 C   0  0  0  0  0  0  0  0  0  0  0  0
   12.6631    4.8017   22.0585 N   0  0  0  0  0  0  0  0  0  0  0  0
   11.2955    5.1888   22.5379 N   0  0  0  0  0  0  0  0  0  0  0  0
   10.7303    6.5781   22.5624 C   0  0  0  0  0  0  0  0  0  0  0  0
   10.5924    3.9428   22.9884 C   0  0  0  0  0  0  0  0  0  0  0  0
 29 30  1  0  0  0
 30 31  1  0  0  0
 31 32  2  0  0  0
 31 28  1  0  0  0
 28  1  1  0  0  0
  1  2  1  0  0  0
  3  2  1  0  0  0
  3  4  1  0  0  0
  4  5  2  0  0  0
  4  6  1  0  0  0
  6 18  1  0  0  0
 18 19  2  0  0  0
 19 20  1  0  0  0
 20 21  2  0  0  0
 21 22  1  0  0  0
 22 23  2  0  0  0
 23 24  1  0  0  0
 24 25  2  0  0  0
 25 26  1  0  0  0
 26 27  2  0  0  0
  6  7  1  0  0  0
  7  8  1  0  0  0
  8 34  1  0  0  0
 34 35  1  0  0  0
 35 37  1  0  0  0
 37 38  1  0  0  0
 38 39  2  0  0  0
 39 40  1  0  0  0
 40 41  1  0  0  0
 40 42  1  0  0  0
  3  9  1  0  0  0
  9 10  2  0  0  0
 10 11  1  0  0  0
 11 12  1  0  0  0
 11 13  2  0  0  0
 13 14  1  0  0  0
 14 15  2  0  0  0
 15 16  1  0  0  0
 16 17  2  0  0  0
 16  1  1  0  0  0
  8  3  1  0  0  0
 42 37  2  0  0  0
 15  9  1  0  0  0
 27 18  1  0  0  0
 27 22  1  0  0  0
 30 33  1  0  0  0
 35 36  1  0  0  0
M  END
> <minimizedAffinity>
-7.58235

> <CNNscore>
0.2670051157

> <CNNaffinity>
7.0353255272

> <CNN_VS>
1.8784679174

> <CNNaffinity_variance>
0.1059158444

$$$$



 42 47  0  0  0  0  0  0  0  0999 V2000
    6.6300   -3.1780   24.1267 N   0  0  0  0  0  0  0  0  0  0  0  0
    6.7446   -1.7649   23.6368 C   0  0  0  0  0  0  0  0  0  0  0  0
    8.0555   -1.0421   23.7319 C   0  0  0  0  0  0  0  0  0  0  0  0
    9.2939   -0.1963   23.7616 C   0  0  0  0  0  0  0  0  0  0  0  0
   10.4571   -0.2609   24.1066 O   0  0  0  0  0  0  0  0  0  0  0  0
    8.9555    1.1419   23.1743 N   0  0  0  0  0  0  0  0  0  0  0  0
    7.5080    1.1231   22.7816 C   0  0  0  0  0  0  0  0  0  0  0  0
    6.9517   -0.2267   23.1262 C   0  0  0  0  0  0  0  0  0  0  0  0
    9.2519   -1.7324   24.3170 C   0  0  0  0  0  0  0  0  0  0  0  0
   10.5627   -1.0095   24.4121 C   0  0  0  0  0  0  0  0  0  0  0  0
   11.7591   -1.6998   24.9971 C   0  0  0  0  0  0  0  0  0  0  0  0
   13.0700   -0.9770   25.0923 Cl  0  0  0  0  0  0  0  0  0  0  0  0
   11.6445   -3.1129   25.4871 C   0  0  0  0  0  0  0  0  0  0  0  0
   10.3336   -3.8357   25.3919 C   0  0  0  0  0  0  0  0  0  0  0  0
    9.1373   -3.1455   24.8069 C   0  0  0  0  0  0  0  0  0  0  0  0
    7.8264   -3.8683   24.7117 C   0  0  0  0  0  0  0  0  0  0  0  0
    7.7118   -5.2814   25.2017 O   0  0  0  0  0  0  0  0  0  0  0  0
    9.8991    2.2961   23.0088 C   0  0  0  0  0  0  0  0  0  0  0  0
   11.3324    2.0468   22.6433 C   0  0  0  0  0  0  0  0  0  0  0  0
   12.2759    3.2010   22.4777 N   0  0  0  0  0  0  0  0  0  0  0  0
   11.7862    4.6046   22.6778 C   0  0  0  0  0  0  0  0  0  0  0  0
   10.3529    4.8540   23.0434 C   0  0  0  0  0  0  0  0  0  0  0  0
    9.8632    6.2577   23.2434 C   0  0  0  0  0  0  0  0  0  0  0  0
    8.4300    6.5069   23.6090 C   0  0  0  0  0  0  0  0  0  0  0  0
    7.4864    5.3527   23.7745 C   0  0  0  0  0  0  0  0  0  0  0  0
    7.9761    3.9491   23.5744 C   0  0  0  0  0  0  0  0  0  0  0  0
    9.4094    3.6997   23.2089 C   0  0  0  0  0  0  0  0  0  0  0  0
    5.3191   -3.9009   24.0316 C   0  0  0  0  0  0  0  0  0  0  0  0
    3.9497   -6.3575   26.8315 C   0  0  0  0  0  0  0  0  0  0  0  0
    4.6254   -5.8628   25.5870 N   0  0  0  0  0  0  0  0  0  0  0  0
    4.6434   -4.3956   25.2760 C   0  0  0  0  0  0  0  0  0  0  0  0
    3.9856   -3.4229   26.2095 O   0  0  0  0  0  0  0  0  0  0  0  0
    5.0571   -6.5012   24.9743 H   0  0  0  0  0  0  0  0  0  0  0  0
    5.5396   -0.6812   22.9041 C   0  0  0  0  0  0  0  0  0  0  0  0
    4.6772    0.0162   21.8943 N   0  0  0  0  0  0  0  0  0  0  0  0
    3.8596    0.4822   22.1833 H   0  0  0  0  0  0  0  0  0  0  0  0
    5.0606    0.0036   20.4442 C   0  0  0  0  0  0  0  0  0  0  0  0
    5.9129   -1.0280   19.7664 C   0  0  0  0  0  0  0  0  0  0  0  0
    6.0379   -0.6486   18.3206 N   0  0  0  0  0  0  0  0  0  0  0  0
    5.2629    0.6174   18.1048 N   0  0  0  0  0  0  0  0  0  0  0  0
    5.1175    1.3514   16.8047 C   0  0  0  0  0  0  0  0  0  0  0  0
    4.6589    1.0205   19.4172 C   0  0  0  0  0  0  0  0  0  0  0  0
 29 30  1  0  0  0
 30 31  1  0  0  0
 31 32  2  0  0  0
 31 28  1  0  0  0
 28  1  1  0  0  0
  1  2  1  0  0  0
  3  2  1  0  0  0
  3  4  1  0  0  0
  4  5  2  0  0  0
  4  6  1  0  0  0
  6 18  1  0  0  0
 18 19  2  0  0  0
 19 20  1  0  0  0
 20 21  2  0  0  0
 21 22  1  0  0  0
 22 23  2  0  0  0
 23 24  1  0  0  0
 24 25  2  0  0  0
 25 26  1  0  0  0
 26 27  2  0  0  0
  6  7  1  0  0  0
  7  8  1  0  0  0
  8 34  1  0  0  0
 34 35  1  0  0  0
 35 37  1  0  0  0
 37 38  1  0  0  0
 38 39  2  0  0  0
 39 40  1  0  0  0
 40 41  1  0  0  0
 40 42  1  0  0  0
  3  9  1  0  0  0
  9 10  2  0  0  0
 10 11  1  0  0  0
 11 12  1  0  0  0
 11 13  2  0  0  0
 13 14  1  0  0  0
 14 15  2  0  0  0
 15 16  1  0  0  0
 16 17  2  0  0  0
 16  1  1  0  0  0
  8  3  1  0  0  0
 42 37  2  0  0  0
 15  9  1  0  0  0
 27 18  1  0  0  0
 27 22  1  0  0  0
 30 33  1  0  0  0
 35 36  1  0  0  0
M  END
> <minimizedAffinity>
-7.51627

> <CNNscore>
0.2620772123

> <CNNaffinity>
6.8692116737

> <CNN_VS>
1.8002638817

> <CNNaffinity_variance>
0.0551271960

$$$$



 42 47  0  0  0  0  0  0  0  0999 V2000
    5.4121    1.8221   21.9576 N   0  0  0  0  0  0  0  0  0  0  0  0
    6.2057    0.5949   22.2955 C   0  0  0  0  0  0  0  0  0  0  0  0
    7.6385    0.7220   22.7207 C   0  0  0  0  0  0  0  0  0  0  0  0
    9.0729    0.6925   23.1588 C   0  0  0  0  0  0  0  0  0  0  0  0
    9.9947    1.4529   23.3789 O   0  0  0  0  0  0  0  0  0  0  0  0
    9.4581   -0.7388   23.3887 N   0  0  0  0  0  0  0  0  0  0  0  0
    8.2618   -1.5940   23.0928 C   0  0  0  0  0  0  0  0  0  0  0  0
    7.1373   -0.6912   22.6799 C   0  0  0  0  0  0  0  0  0  0  0  0
    8.2777    2.0762   22.8081 C   0  0  0  0  0  0  0  0  0  0  0  0
    9.7105    2.2033   23.2333 C   0  0  0  0  0  0  0  0  0  0  0  0
   10.3496    3.5575   23.3207 C   0  0  0  0  0  0  0  0  0  0  0  0
   11.7825    3.6846   23.7460 Cl  0  0  0  0  0  0  0  0  0  0  0  0
    9.5559    4.7846   22.9828 C   0  0  0  0  0  0  0  0  0  0  0  0
    8.1231    4.6575   22.5575 C   0  0  0  0  0  0  0  0  0  0  0  0
    7.4840    3.3034   22.4702 C   0  0  0  0  0  0  0  0  0  0  0  0
    6.0512    3.1762   22.0449 C   0  0  0  0  0  0  0  0  0  0  0  0
    5.2575    4.4034   21.7070 O   0  0  0  0  0  0  0  0  0  0  0  0
   10.8033   -1.2289   23.8360 C   0  0  0  0  0  0  0  0  0  0  0  0
   12.0424   -0.7730   23.1241 C   0  0  0  0  0  0  0  0  0  0  0  0
   13.3877   -1.2631   23.5714 N   0  0  0  0  0  0  0  0  0  0  0  0
   13.4938   -2.2090   24.7307 C   0  0  0  0  0  0  0  0  0  0  0  0
   12.2547   -2.6649   25.4426 C   0  0  0  0  0  0  0  0  0  0  0  0
   12.3609   -3.6108   26.6020 C   0  0  0  0  0  0  0  0  0  0  0  0
   11.1218   -4.0667   27.3138 C   0  0  0  0  0  0  0  0  0  0  0  0
    9.7765   -3.5766   26.8665 C   0  0  0  0  0  0  0  0  0  0  0  0
    9.6704   -2.6307   25.7072 C   0  0  0  0  0  0  0  0  0  0  0  0
   10.9095   -2.1748   24.9953 C   0  0  0  0  0  0  0  0  0  0  0  0
    3.9792    1.6950   21.5323 C   0  0  0  0  0  0  0  0  0  0  0  0
    4.3659    1.1959   17.6142 C   0  0  0  0  0  0  0  0  0  0  0  0
    4.7096    1.2990   19.0707 N   0  0  0  0  0  0  0  0  0  0  0  0
    3.6355    1.5918   20.0759 C   0  0  0  0  0  0  0  0  0  0  0  0
    2.2175    1.7814   19.6246 O   0  0  0  0  0  0  0  0  0  0  0  0
    5.6402    1.1746   19.3668 H   0  0  0  0  0  0  0  0  0  0  0  0
    5.7544   -1.1254   22.2940 C   0  0  0  0  0  0  0  0  0  0  0  0
    5.5101   -2.5333   21.8381 N   0  0  0  0  0  0  0  0  0  0  0  0
    5.1558   -2.7039   20.9356 H   0  0  0  0  0  0  0  0  0  0  0  0
    5.8056   -3.6813   22.7572 C   0  0  0  0  0  0  0  0  0  0  0  0
    5.4846   -3.7439   24.2211 C   0  0  0  0  0  0  0  0  0  0  0  0
    5.9546   -5.0696   24.7424 N   0  0  0  0  0  0  0  0  0  0  0  0
    6.5660   -5.8263   23.6006 N   0  0  0  0  0  0  0  0  0  0  0  0
    7.1645   -7.1998   23.6731 C   0  0  0  0  0  0  0  0  0  0  0  0
    6.4739   -4.9683   22.3737 C   0  0  0  0  0  0  0  0  0  0  0  0
 29 30  1  0  0  0
 30 31  1  0  0  0
 31 32  2  0  0  0
 31 28  1  0  0  0
 28  1  1  0  0  0
  1  2  1  0  0  0
  3  2  1  0  0  0
  3  4  1  0  0  0
  4  5  2  0  0  0
  4  6  1  0  0  0
  6 18  1  0  0  0
 18 19  2  0  0  0
 19 20  1  0  0  0
 20 21  2  0  0  0
 21 22  1  0  0  0
 22 23  2  0  0  0
 23 24  1  0  0  0
 24 25  2  0  0  0
 25 26  1  0  0  0
 26 27  2  0  0  0
  6  7  1  0  0  0
  7  8  1  0  0  0
  8 34  1  0  0  0
 34 35  1  0  0  0
 35 37  1  0  0  0
 37 38  1  0  0  0
 38 39  2  0  0  0
 39 40  1  0  0  0
 40 41  1  0  0  0
 40 42  1  0  0  0
  3  9  1  0  0  0
  9 10  2  0  0  0
 10 11  1  0  0  0
 11 12  1  0  0  0
 11 13  2  0  0  0
 13 14  1  0  0  0
 14 15  2  0  0  0
 15 16  1  0  0  0
 16 17  2  0  0  0
 16  1  1  0  0  0
  8  3  1  0  0  0
 42 37  2  0  0  0
 15  9  1  0  0  0
 27 18  1  0  0  0
 27 22  1  0  0  0
 30 33  1  0  0  0
 35 36  1  0  0  0
M  END
> <minimizedAffinity>
-7.84838

> <CNNscore>
0.2061315179

> <CNNaffinity>
6.9262475967

> <CNN_VS>
1.4277179241

> <CNNaffinity_variance>
0.0635392219

$$$$



 42 47  0  0  0  0  0  0  0  0999 V2000
    9.6205    0.6225   22.8832 N   0  0  0  0  0  0  0  0  0  0  0  0
    8.4684   -0.3303   22.7617 C   0  0  0  0  0  0  0  0  0  0  0  0
    8.4846   -1.6269   23.5157 C   0  0  0  0  0  0  0  0  0  0  0  0
    8.3608   -2.9531   24.2054 C   0  0  0  0  0  0  0  0  0  0  0  0
    8.9785   -3.6647   24.9724 O   0  0  0  0  0  0  0  0  0  0  0  0
    7.0536   -3.5666   23.7991 N   0  0  0  0  0  0  0  0  0  0  0  0
    6.3696   -2.6195   22.8583 C   0  0  0  0  0  0  0  0  0  0  0  0
    7.2540   -1.4207   22.6832 C   0  0  0  0  0  0  0  0  0  0  0  0
    9.6531   -1.9708   24.3912 C   0  0  0  0  0  0  0  0  0  0  0  0
    9.6694   -3.2674   25.1452 C   0  0  0  0  0  0  0  0  0  0  0  0
   10.8378   -3.6112   26.0206 C   0  0  0  0  0  0  0  0  0  0  0  0
   10.8541   -4.9079   26.7747 Cl  0  0  0  0  0  0  0  0  0  0  0  0
   11.9900   -2.6585   26.1421 C   0  0  0  0  0  0  0  0  0  0  0  0
   11.9737   -1.3619   25.3882 C   0  0  0  0  0  0  0  0  0  0  0  0
   10.8053   -1.0180   24.5127 C   0  0  0  0  0  0  0  0  0  0  0  0
   10.7890    0.2786   23.7587 C   0  0  0  0  0  0  0  0  0  0  0  0
   11.9411    1.2314   23.8802 O   0  0  0  0  0  0  0  0  0  0  0  0
    6.5236   -4.8941   24.2538 C   0  0  0  0  0  0  0  0  0  0  0  0
    7.0928   -6.1621   23.6897 C   0  0  0  0  0  0  0  0  0  0  0  0
    6.5628   -7.4896   24.1444 N   0  0  0  0  0  0  0  0  0  0  0  0
    5.4635   -7.5491   25.1632 C   0  0  0  0  0  0  0  0  0  0  0  0
    4.8942   -6.2812   25.7273 C   0  0  0  0  0  0  0  0  0  0  0  0
    3.7949   -6.3407   26.7462 C   0  0  0  0  0  0  0  0  0  0  0  0
    3.2257   -5.0727   27.3103 C   0  0  0  0  0  0  0  0  0  0  0  0
    3.7557   -3.7452   26.8556 C   0  0  0  0  0  0  0  0  0  0  0  0
    4.8550   -3.6857   25.8367 C   0  0  0  0  0  0  0  0  0  0  0  0
    5.4243   -4.9536   25.2726 C   0  0  0  0  0  0  0  0  0  0  0  0
    9.6042    1.9191   22.1292 C   0  0  0  0  0  0  0  0  0  0  0  0
    8.5010    5.4820   23.4852 C   0  0  0  0  0  0  0  0  0  0  0  0
    9.3651    4.3506   23.0128 N   0  0  0  0  0  0  0  0  0  0  0  0
    8.7401    3.0506   22.6016 C   0  0  0  0  0  0  0  0  0  0  0  0
    7.2508    2.8819   22.6627 O   0  0  0  0  0  0  0  0  0  0  0  0
   10.3426    4.4613   22.9727 H   0  0  0  0  0  0  0  0  0  0  0  0
    6.9595   -0.2255   21.8260 C   0  0  0  0  0  0  0  0  0  0  0  0
    6.9183   -0.3650   20.3331 N   0  0  0  0  0  0  0  0  0  0  0  0
    7.5895   -0.9181   19.8718 H   0  0  0  0  0  0  0  0  0  0  0  0
    5.8547    0.3382   19.5431 C   0  0  0  0  0  0  0  0  0  0  0  0
    5.6801    0.2823   18.0544 C   0  0  0  0  0  0  0  0  0  0  0  0
    4.4964    1.1304   17.6944 N   0  0  0  0  0  0  0  0  0  0  0  0
    3.9394    1.7104   18.9606 N   0  0  0  0  0  0  0  0  0  0  0  0
    2.7515    2.6202   19.0657 C   0  0  0  0  0  0  0  0  0  0  0  0
    4.7789    1.2208   20.1032 C   0  0  0  0  0  0  0  0  0  0  0  0
 29 30  1  0  0  0
 30 31  1  0  0  0
 31 32  2  0  0  0
 31 28  1  0  0  0
 28  1  1  0  0  0
  1  2  1  0  0  0
  3  2  1  0  0  0
  3  4  1  0  0  0
  4  5  2  0  0  0
  4  6  1  0  0  0
  6 18  1  0  0  0
 18 19  2  0  0  0
 19 20  1  0  0  0
 20 21  2  0  0  0
 21 22  1  0  0  0
 22 23  2  0  0  0
 23 24  1  0  0  0
 24 25  2  0  0  0
 25 26  1  0  0  0
 26 27  2  0  0  0
  6  7  1  0  0  0
  7  8  1  0  0  0
  8 34  1  0  0  0
 34 35  1  0  0  0
 35 37  1  0  0  0
 37 38  1  0  0  0
 38 39  2  0  0  0
 39 40  1  0  0  0
 40 41  1  0  0  0
 40 42  1  0  0  0
  3  9  1  0  0  0
  9 10  2  0  0  0
 10 11  1  0  0  0
 11 12  1  0  0  0
 11 13  2  0  0  0
 13 14  1  0  0  0
 14 15  2  0  0  0
 15 16  1  0  0  0
 16 17  2  0  0  0
 16  1  1  0  0  0
  8  3  1  0  0  0
 42 37  2  0  0  0
 15  9  1  0  0  0
 27 18  1  0  0  0
 27 22  1  0  0  0
 30 33  1  0  0  0
 35 36  1  0  0  0
M  END
> <minimizedAffinity>
-9.35814

> <CNNscore>
0.2018503994

> <CNNaffinity>
6.8597168922

> <CNN_VS>
1.3846366405

> <CNNaffinity_variance>
0.1753991395

$$$$



 42 47  0  0  0  0  0  0  0  0999 V2000
   10.8228    1.2510   22.9346 N   0  0  0  0  0  0  0  0  0  0  0  0
    9.4123    1.0514   23.4045 C   0  0  0  0  0  0  0  0  0  0  0  0
    9.0923   -0.0510   24.3700 C   0  0  0  0  0  0  0  0  0  0  0  0
    8.6231   -1.1049   25.3287 C   0  0  0  0  0  0  0  0  0  0  0  0
    9.0622   -2.0292   25.9838 O   0  0  0  0  0  0  0  0  0  0  0  0
    7.1442   -0.9369   25.5149 N   0  0  0  0  0  0  0  0  0  0  0  0
    6.6994    0.2209   24.6713 C   0  0  0  0  0  0  0  0  0  0  0  0
    7.9034    0.7684   23.9637 C   0  0  0  0  0  0  0  0  0  0  0  0
   10.1828   -0.9539   24.8657 C   0  0  0  0  0  0  0  0  0  0  0  0
    9.8628   -2.0563   25.8312 C   0  0  0  0  0  0  0  0  0  0  0  0
   10.9532   -2.9592   26.3268 C   0  0  0  0  0  0  0  0  0  0  0  0
   10.6333   -4.0617   27.2923 Cl  0  0  0  0  0  0  0  0  0  0  0  0
   12.3637   -2.7597   25.8569 C   0  0  0  0  0  0  0  0  0  0  0  0
   12.6837   -1.6573   24.8914 C   0  0  0  0  0  0  0  0  0  0  0  0
   11.5933   -0.7544   24.3958 C   0  0  0  0  0  0  0  0  0  0  0  0
   11.9132    0.3481   23.4302 C   0  0  0  0  0  0  0  0  0  0  0  0
   13.3237    0.5476   22.9603 O   0  0  0  0  0  0  0  0  0  0  0  0
    6.2646   -1.7789   26.3909 C   0  0  0  0  0  0  0  0  0  0  0  0
    6.8573   -2.8985   27.1941 C   0  0  0  0  0  0  0  0  0  0  0  0
    5.9777   -3.7405   28.0702 N   0  0  0  0  0  0  0  0  0  0  0  0
    4.5055   -3.4628   28.1429 C   0  0  0  0  0  0  0  0  0  0  0  0
    3.9128   -2.3432   27.3397 C   0  0  0  0  0  0  0  0  0  0  0  0
    2.4404   -2.0655   27.4125 C   0  0  0  0  0  0  0  0  0  0  0  0
    1.8479   -0.9458   26.6092 C   0  0  0  0  0  0  0  0  0  0  0  0
    2.7275   -0.1039   25.7332 C   0  0  0  0  0  0  0  0  0  0  0  0
    4.1997   -0.3816   25.6605 C   0  0  0  0  0  0  0  0  0  0  0  0
    4.7924   -1.5012   26.4637 C   0  0  0  0  0  0  0  0  0  0  0  0
   11.1428    2.3535   21.9690 C   0  0  0  0  0  0  0  0  0  0  0  0
   10.5216    6.0496   23.2738 C   0  0  0  0  0  0  0  0  0  0  0  0
   10.2587    4.6622   22.7678 N   0  0  0  0  0  0  0  0  0  0  0  0
   11.4056    3.7408   22.4751 C   0  0  0  0  0  0  0  0  0  0  0  0
   12.8154    4.2068   22.6886 O   0  0  0  0  0  0  0  0  0  0  0  0
    9.3335    4.3564   22.6276 H   0  0  0  0  0  0  0  0  0  0  0  0
    7.9162    1.9312   23.0162 C   0  0  0  0  0  0  0  0  0  0  0  0
    7.1764    1.8459   21.7142 N   0  0  0  0  0  0  0  0  0  0  0  0
    7.4508    1.1889   21.0343 H   0  0  0  0  0  0  0  0  0  0  0  0
    6.0185    2.7616   21.4481 C   0  0  0  0  0  0  0  0  0  0  0  0
    5.9416    4.2146   21.8124 C   0  0  0  0  0  0  0  0  0  0  0  0
    4.6098    4.7360   21.3603 N   0  0  0  0  0  0  0  0  0  0  0  0
    3.8635    3.6052   20.7166 N   0  0  0  0  0  0  0  0  0  0  0  0
    2.4881    3.6813   20.1229 C   0  0  0  0  0  0  0  0  0  0  0  0
    4.7342    2.3849   20.7708 C   0  0  0  0  0  0  0  0  0  0  0  0
 29 30  1  0  0  0
 30 31  1  0  0  0
 31 32  2  0  0  0
 31 28  1  0  0  0
 28  1  1  0  0  0
  1  2  1  0  0  0
  3  2  1  0  0  0
  3  4  1  0  0  0
  4  5  2  0  0  0
  4  6  1  0  0  0
  6 18  1  0  0  0
 18 19  2  0  0  0
 19 20  1  0  0  0
 20 21  2  0  0  0
 21 22  1  0  0  0
 22 23  2  0  0  0
 23 24  1  0  0  0
 24 25  2  0  0  0
 25 26  1  0  0  0
 26 27  2  0  0  0
  6  7  1  0  0  0
  7  8  1  0  0  0
  8 34  1  0  0  0
 34 35  1  0  0  0
 35 37  1  0  0  0
 37 38  1  0  0  0
 38 39  2  0  0  0
 39 40  1  0  0  0
 40 41  1  0  0  0
 40 42  1  0  0  0
  3  9  1  0  0  0
  9 10  2  0  0  0
 10 11  1  0  0  0
 11 12  1  0  0  0
 11 13  2  0  0  0
 13 14  1  0  0  0
 14 15  2  0  0  0
 15 16  1  0  0  0
 16 17  2  0  0  0
 16  1  1  0  0  0
  8  3  1  0  0  0
 42 37  2  0  0  0
 15  9  1  0  0  0
 27 18  1  0  0  0
 27 22  1  0  0  0
 30 33  1  0  0  0
 35 36  1  0  0  0
M  END
> <minimizedAffinity>
-7.89660

> <CNNscore>
0.1958792061

> <CNNaffinity>
6.8629012108

> <CNN_VS>
1.3442996740

> <CNNaffinity_variance>
0.1528867334

$$$$



 42 47  0  0  0  0  0  0  0  0999 V2000
    6.8560   -3.5086   23.1627 N   0  0  0  0  0  0  0  0  0  0  0  0
    7.0922   -2.1199   22.6473 C   0  0  0  0  0  0  0  0  0  0  0  0
    8.3120   -1.3586   23.0745 C   0  0  0  0  0  0  0  0  0  0  0  0
    9.4800   -0.4799   23.4114 C   0  0  0  0  0  0  0  0  0  0  0  0
   10.4947   -0.4960   24.0796 O   0  0  0  0  0  0  0  0  0  0  0  0
    9.3115    0.8170   22.6769 N   0  0  0  0  0  0  0  0  0  0  0  0
    8.0393    0.7399   21.8860 C   0  0  0  0  0  0  0  0  0  0  0  0
    7.4216   -0.6048   22.1318 C   0  0  0  0  0  0  0  0  0  0  0  0
    9.2957   -1.9862   24.0172 C   0  0  0  0  0  0  0  0  0  0  0  0
   10.5156   -1.2250   24.4444 C   0  0  0  0  0  0  0  0  0  0  0  0
   11.4992   -1.8525   25.3870 C   0  0  0  0  0  0  0  0  0  0  0  0
   12.7191   -1.0913   25.8143 Cl  0  0  0  0  0  0  0  0  0  0  0  0
   11.2631   -3.2413   25.9024 C   0  0  0  0  0  0  0  0  0  0  0  0
   10.0433   -4.0025   25.4752 C   0  0  0  0  0  0  0  0  0  0  0  0
    9.0596   -3.3749   24.5326 C   0  0  0  0  0  0  0  0  0  0  0  0
    7.8397   -4.1361   24.1053 C   0  0  0  0  0  0  0  0  0  0  0  0
    7.6036   -5.5249   24.6207 O   0  0  0  0  0  0  0  0  0  0  0  0
   10.2503    1.9859   22.7248 C   0  0  0  0  0  0  0  0  0  0  0  0
   11.7264    1.7692   22.5693 C   0  0  0  0  0  0  0  0  0  0  0  0
   12.6653    2.9380   22.6172 N   0  0  0  0  0  0  0  0  0  0  0  0
   12.1280    4.3236   22.8207 C   0  0  0  0  0  0  0  0  0  0  0  0
   10.6519    4.5404   22.9762 C   0  0  0  0  0  0  0  0  0  0  0  0
   10.1147    5.9261   23.1797 C   0  0  0  0  0  0  0  0  0  0  0  0
    8.6386    6.1427   23.3353 C   0  0  0  0  0  0  0  0  0  0  0  0
    7.6997    4.9738   23.2874 C   0  0  0  0  0  0  0  0  0  0  0  0
    8.2370    3.5882   23.0839 C   0  0  0  0  0  0  0  0  0  0  0  0
    9.7131    3.3715   22.9283 C   0  0  0  0  0  0  0  0  0  0  0  0
    5.6361   -4.2698   22.7354 C   0  0  0  0  0  0  0  0  0  0  0  0
    4.6537   -7.4711   24.8653 C   0  0  0  0  0  0  0  0  0  0  0  0
    4.8243   -6.0378   24.4574 N   0  0  0  0  0  0  0  0  0  0  0  0
    5.4655   -5.7032   23.1433 C   0  0  0  0  0  0  0  0  0  0  0  0
    5.9360   -6.8020   22.2370 O   0  0  0  0  0  0  0  0  0  0  0  0
    4.5155   -5.3166   25.0522 H   0  0  0  0  0  0  0  0  0  0  0  0
    6.1386   -1.1073   21.5388 C   0  0  0  0  0  0  0  0  0  0  0  0
    5.9421   -1.0900   20.0519 N   0  0  0  0  0  0  0  0  0  0  0  0
    6.3301   -1.8037   19.4958 H   0  0  0  0  0  0  0  0  0  0  0  0
    5.1545    0.0148   19.4123 C   0  0  0  0  0  0  0  0  0  0  0  0
    5.2376    0.4396   17.9761 C   0  0  0  0  0  0  0  0  0  0  0  0
    4.2799    1.5760   17.7727 N   0  0  0  0  0  0  0  0  0  0  0  0
    3.6049    1.8535   19.0832 N   0  0  0  0  0  0  0  0  0  0  0  0
    2.5709    2.9104   19.3359 C   0  0  0  0  0  0  0  0  0  0  0  0
    4.1454    0.8886   20.0965 C   0  0  0  0  0  0  0  0  0  0  0  0
 29 30  1  0  0  0
 30 31  1  0  0  0
 31 32  2  0  0  0
 31 28  1  0  0  0
 28  1  1  0  0  0
  1  2  1  0  0  0
  3  2  1  0  0  0
  3  4  1  0  0  0
  4  5  2  0  0  0
  4  6  1  0  0  0
  6 18  1  0  0  0
 18 19  2  0  0  0
 19 20  1  0  0  0
 20 21  2  0  0  0
 21 22  1  0  0  0
 22 23  2  0  0  0
 23 24  1  0  0  0
 24 25  2  0  0  0
 25 26  1  0  0  0
 26 27  2  0  0  0
  6  7  1  0  0  0
  7  8  1  0  0  0
  8 34  1  0  0  0
 34 35  1  0  0  0
 35 37  1  0  0  0
 37 38  1  0  0  0
 38 39  2  0  0  0
 39 40  1  0  0  0
 40 41  1  0  0  0
 40 42  1  0  0  0
  3  9  1  0  0  0
  9 10  2  0  0  0
 10 11  1  0  0  0
 11 12  1  0  0  0
 11 13  2  0  0  0
 13 14  1  0  0  0
 14 15  2  0  0  0
 15 16  1  0  0  0
 16 17  2  0  0  0
 16  1  1  0  0  0
  8  3  1  0  0  0
 42 37  2  0  0  0
 15  9  1  0  0  0
 27 18  1  0  0  0
 27 22  1  0  0  0
 30 33  1  0  0  0
 35 36  1  0  0  0
M  END
> <minimizedAffinity>
-9.01289

> <CNNscore>
0.1891907752

> <CNNaffinity>
6.7582712173

> <CNN_VS>
1.2786026001

> <CNNaffinity_variance>
0.1927048266

$$$$



 42 47  0  0  0  0  0  0  0  0999 V2000
    6.9248   -3.7104   22.9688 N   0  0  0  0  0  0  0  0  0  0  0  0
    7.1716   -2.3253   22.4486 C   0  0  0  0  0  0  0  0  0  0  0  0
    8.3376   -1.5301   22.9565 C   0  0  0  0  0  0  0  0  0  0  0  0
    9.4567   -0.6200   23.3682 C   0  0  0  0  0  0  0  0  0  0  0  0
   10.4156   -0.6025   24.1141 O   0  0  0  0  0  0  0  0  0  0  0  0
    9.3194    0.6607   22.5994 N   0  0  0  0  0  0  0  0  0  0  0  0
    8.1154    0.5421   21.7126 C   0  0  0  0  0  0  0  0  0  0  0  0
    7.5087   -0.8118   21.9333 C   0  0  0  0  0  0  0  0  0  0  0  0
    9.2569   -2.1200   23.9846 C   0  0  0  0  0  0  0  0  0  0  0  0
   10.4229   -1.3248   24.4925 C   0  0  0  0  0  0  0  0  0  0  0  0
   11.3422   -1.9147   25.5206 C   0  0  0  0  0  0  0  0  0  0  0  0
   12.5083   -1.1195   26.0285 Cl  0  0  0  0  0  0  0  0  0  0  0  0
   11.0954   -3.2998   26.0408 C   0  0  0  0  0  0  0  0  0  0  0  0
    9.9293   -4.0950   25.5329 C   0  0  0  0  0  0  0  0  0  0  0  0
    9.0101   -3.5051   24.5048 C   0  0  0  0  0  0  0  0  0  0  0  0
    7.8440   -4.3003   23.9969 C   0  0  0  0  0  0  0  0  0  0  0  0
    7.5972   -5.6854   24.5170 O   0  0  0  0  0  0  0  0  0  0  0  0
   10.2267    1.8509   22.6999 C   0  0  0  0  0  0  0  0  0  0  0  0
   11.7122    1.6729   22.5911 C   0  0  0  0  0  0  0  0  0  0  0  0
   12.6195    2.8631   22.6916 N   0  0  0  0  0  0  0  0  0  0  0  0
   12.0414    4.2313   22.9007 C   0  0  0  0  0  0  0  0  0  0  0  0
   10.5560    4.4093   23.0094 C   0  0  0  0  0  0  0  0  0  0  0  0
    9.9779    5.7776   23.2186 C   0  0  0  0  0  0  0  0  0  0  0  0
    8.4924    5.9555   23.3273 C   0  0  0  0  0  0  0  0  0  0  0  0
    7.5851    4.7653   23.2269 C   0  0  0  0  0  0  0  0  0  0  0  0
    8.1632    3.3971   23.0177 C   0  0  0  0  0  0  0  0  0  0  0  0
    9.6486    3.2191   22.9090 C   0  0  0  0  0  0  0  0  0  0  0  0
    5.7587   -4.5056   22.4608 C   0  0  0  0  0  0  0  0  0  0  0  0
    3.7595   -5.2707   25.8027 C   0  0  0  0  0  0  0  0  0  0  0  0
    4.7094   -4.6304   24.8343 N   0  0  0  0  0  0  0  0  0  0  0  0
    4.8087   -5.1458   23.4292 C   0  0  0  0  0  0  0  0  0  0  0  0
    3.9580   -6.3015   22.9923 O   0  0  0  0  0  0  0  0  0  0  0  0
    5.2678   -3.8720   25.1210 H   0  0  0  0  0  0  0  0  0  0  0  0
    6.2873   -1.3525   21.2506 C   0  0  0  0  0  0  0  0  0  0  0  0
    5.6898   -0.6163   20.0884 N   0  0  0  0  0  0  0  0  0  0  0  0
    5.9788   -0.8270   19.1712 H   0  0  0  0  0  0  0  0  0  0  0  0
    4.6521    0.4409   20.3236 C   0  0  0  0  0  0  0  0  0  0  0  0
    4.0688    0.8239   21.6515 C   0  0  0  0  0  0  0  0  0  0  0  0
    3.0716    1.9204   21.4207 N   0  0  0  0  0  0  0  0  0  0  0  0
    3.0386    2.2151   19.9503 N   0  0  0  0  0  0  0  0  0  0  0  0
    2.1796    3.2437   19.2764 C   0  0  0  0  0  0  0  0  0  0  0  0
    4.0154    1.3007   19.2723 C   0  0  0  0  0  0  0  0  0  0  0  0
 29 30  1  0  0  0
 30 31  1  0  0  0
 31 32  2  0  0  0
 31 28  1  0  0  0
 28  1  1  0  0  0
  1  2  1  0  0  0
  3  2  1  0  0  0
  3  4  1  0  0  0
  4  5  2  0  0  0
  4  6  1  0  0  0
  6 18  1  0  0  0
 18 19  2  0  0  0
 19 20  1  0  0  0
 20 21  2  0  0  0
 21 22  1  0  0  0
 22 23  2  0  0  0
 23 24  1  0  0  0
 24 25  2  0  0  0
 25 26  1  0  0  0
 26 27  2  0  0  0
  6  7  1  0  0  0
  7  8  1  0  0  0
  8 34  1  0  0  0
 34 35  1  0  0  0
 35 37  1  0  0  0
 37 38  1  0  0  0
 38 39  2  0  0  0
 39 40  1  0  0  0
 40 41  1  0  0  0
 40 42  1  0  0  0
  3  9  1  0  0  0
  9 10  2  0  0  0
 10 11  1  0  0  0
 11 12  1  0  0  0
 11 13  2  0  0  0
 13 14  1  0  0  0
 14 15  2  0  0  0
 15 16  1  0  0  0
 16 17  2  0  0  0
 16  1  1  0  0  0
  8  3  1  0  0  0
 42 37  2  0  0  0
 15  9  1  0  0  0
 27 18  1  0  0  0
 27 22  1  0  0  0
 30 33  1  0  0  0
 35 36  1  0  0  0
M  END
> <minimizedAffinity>
-8.47541

> <CNNscore>
0.1871095449

> <CNNaffinity>
6.7503633499

> <CNN_VS>
1.2630574703

> <CNNaffinity_variance>
0.1661221087

$$$$



 42 47  0  0  0  0  0  0  0  0999 V2000
   10.6195    1.4115   22.9814 N   0  0  0  0  0  0  0  0  0  0  0  0
    9.2417    1.1282   23.5023 C   0  0  0  0  0  0  0  0  0  0  0  0
    9.0172   -0.0157   24.4462 C   0  0  0  0  0  0  0  0  0  0  0  0
    8.6412   -1.1185   25.3908 C   0  0  0  0  0  0  0  0  0  0  0  0
    9.1523   -2.0378   25.9991 O   0  0  0  0  0  0  0  0  0  0  0  0
    7.1650   -1.0303   25.6423 N   0  0  0  0  0  0  0  0  0  0  0  0
    6.6287    0.1271   24.8531 C   0  0  0  0  0  0  0  0  0  0  0  0
    7.7734    0.7541   24.1139 C   0  0  0  0  0  0  0  0  0  0  0  0
   10.1706   -0.8765   24.8692 C   0  0  0  0  0  0  0  0  0  0  0  0
    9.9461   -2.0204   25.8131 C   0  0  0  0  0  0  0  0  0  0  0  0
   11.0994   -2.8810   26.2362 C   0  0  0  0  0  0  0  0  0  0  0  0
   10.8750   -4.0250   27.1801 Cl  0  0  0  0  0  0  0  0  0  0  0  0
   12.4773   -2.5978   25.7153 C   0  0  0  0  0  0  0  0  0  0  0  0
   12.7018   -1.4539   24.7714 C   0  0  0  0  0  0  0  0  0  0  0  0
   11.5484   -0.5932   24.3483 C   0  0  0  0  0  0  0  0  0  0  0  0
   11.7729    0.5508   23.4044 C   0  0  0  0  0  0  0  0  0  0  0  0
   13.1507    0.8340   22.8835 O   0  0  0  0  0  0  0  0  0  0  0  0
    6.3656   -1.9397   26.5276 C   0  0  0  0  0  0  0  0  0  0  0  0
    6.1484   -3.3704   26.1326 C   0  0  0  0  0  0  0  0  0  0  0  0
    5.3490   -4.2799   27.0179 N   0  0  0  0  0  0  0  0  0  0  0  0
    4.7667   -3.7587   28.2982 C   0  0  0  0  0  0  0  0  0  0  0  0
    4.9839   -2.3280   28.6933 C   0  0  0  0  0  0  0  0  0  0  0  0
    4.4016   -1.8068   29.9737 C   0  0  0  0  0  0  0  0  0  0  0  0
    4.6188   -0.3761   30.3687 C   0  0  0  0  0  0  0  0  0  0  0  0
    5.4183    0.5334   29.4834 C   0  0  0  0  0  0  0  0  0  0  0  0
    6.0005    0.0122   28.2030 C   0  0  0  0  0  0  0  0  0  0  0  0
    5.7833   -1.4185   27.8080 C   0  0  0  0  0  0  0  0  0  0  0  0
   10.8440    2.5554   22.0374 C   0  0  0  0  0  0  0  0  0  0  0  0
   10.6376    6.2577   23.4517 C   0  0  0  0  0  0  0  0  0  0  0  0
   10.2213    4.9180   22.9209 N   0  0  0  0  0  0  0  0  0  0  0  0
   11.2603    3.8952   22.5682 C   0  0  0  0  0  0  0  0  0  0  0  0
   12.7156    4.2121   22.7464 O   0  0  0  0  0  0  0  0  0  0  0  0
    9.2662    4.7100   22.8040 H   0  0  0  0  0  0  0  0  0  0  0  0
    7.6892    1.9424   23.2023 C   0  0  0  0  0  0  0  0  0  0  0  0
    6.4838    2.1350   22.3306 N   0  0  0  0  0  0  0  0  0  0  0  0
    5.7467    2.7144   22.6309 H   0  0  0  0  0  0  0  0  0  0  0  0
    6.4015    1.4448   21.0013 C   0  0  0  0  0  0  0  0  0  0  0  0
    7.3635    0.4191   20.4794 C   0  0  0  0  0  0  0  0  0  0  0  0
    6.8992   -0.0004   19.1162 N   0  0  0  0  0  0  0  0  0  0  0  0
    5.6503    0.7660   18.7956 N   0  0  0  0  0  0  0  0  0  0  0  0
    4.8496    0.6582   17.5317 C   0  0  0  0  0  0  0  0  0  0  0  0
    5.3427    1.6593   19.9607 C   0  0  0  0  0  0  0  0  0  0  0  0
 29 30  1  0  0  0
 30 31  1  0  0  0
 31 32  2  0  0  0
 31 28  1  0  0  0
 28  1  1  0  0  0
  1  2  1  0  0  0
  3  2  1  0  0  0
  3  4  1  0  0  0
  4  5  2  0  0  0
  4  6  1  0  0  0
  6 18  1  0  0  0
 18 19  2  0  0  0
 19 20  1  0  0  0
 20 21  2  0  0  0
 21 22  1  0  0  0
 22 23  2  0  0  0
 23 24  1  0  0  0
 24 25  2  0  0  0
 25 26  1  0  0  0
 26 27  2  0  0  0
  6  7  1  0  0  0
  7  8  1  0  0  0
  8 34  1  0  0  0
 34 35  1  0  0  0
 35 37  1  0  0  0
 37 38  1  0  0  0
 38 39  2  0  0  0
 39 40  1  0  0  0
 40 41  1  0  0  0
 40 42  1  0  0  0
  3  9  1  0  0  0
  9 10  2  0  0  0
 10 11  1  0  0  0
 11 12  1  0  0  0
 11 13  2  0  0  0
 13 14  1  0  0  0
 14 15  2  0  0  0
 15 16  1  0  0  0
 16 17  2  0  0  0
 16  1  1  0  0  0
  8  3  1  0  0  0
 42 37  2  0  0  0
 15  9  1  0  0  0
 27 18  1  0  0  0
 27 22  1  0  0  0
 30 33  1  0  0  0
 35 36  1  0  0  0
M  END
> <minimizedAffinity>
-8.59831

> <CNNscore>
0.1795102507

> <CNNaffinity>
6.8389482498

> <CNN_VS>
1.2276613712

> <CNNaffinity_variance>
0.1025604233

$$$$
